<?xml version="1.0" encoding="UTF-8"?>

<!-- generated on 2025-11-11 21:37:13 by Eclipse SUMO netconvert Version 1.20.0
<configuration xmlns:xsi="http://www.w3.org/2001/XMLSchema-instance" xsi:noNamespaceSchemaLocation="http://sumo.dlr.de/xsd/netconvertConfiguration.xsd">

    <input>
        <sumo-net-file value="city.net.xml"/>
    </input>

    <output>
        <output-file value="city_tls.net.xml"/>
    </output>

    <processing>
        <geometry.min-radius.fix.railways value="false"/>
        <geometry.max-grade.fix value="false"/>
        <offset.disable-normalization value="true"/>
        <lefthand value="0"/>
    </processing>

    <tls_building>
        <tls.guess value="true"/>
    </tls_building>

    <junctions>
        <no-turnarounds value="true"/>
        <junctions.corner-detail value="5"/>
        <junctions.limit-turn-speed value="5.50"/>
        <rectangular-lane-cut value="0"/>
    </junctions>

    <pedestrian>
        <walkingareas value="0"/>
    </pedestrian>

</configuration>
-->

<net version="1.20" junctionCornerDetail="5" limitTurnSpeed="5.50" xmlns:xsi="http://www.w3.org/2001/XMLSchema-instance" xsi:noNamespaceSchemaLocation="http://sumo.dlr.de/xsd/net_file.xsd">

    <location netOffset="0.00,0.00" convBoundary="0.00,0.00,200.00,200.00" origBoundary="0.00,0.00,200.00,200.00" projParameter="!"/>

    <edge id=":A0_0" function="internal">
        <lane id=":A0_0_0" index="0" speed="8.96" length="18.06" shape="-4.80,6.40 -4.10,1.50 -2.00,-2.00 1.50,-4.10 6.40,-4.80"/>
        <lane id=":A0_0_1" index="1" speed="7.66" length="12.90" shape="-1.60,6.40 -1.10,2.90 0.40,0.40 2.90,-1.10 6.40,-1.60"/>
    </edge>
    <edge id=":A0_2" function="internal">
        <lane id=":A0_2_0" index="0" speed="3.90" length="2.58" shape="6.40,4.80 5.70,4.90 5.20,5.20 4.90,5.70 4.80,6.40"/>
        <lane id=":A0_2_1" index="1" speed="6.08" length="7.74" shape="6.40,1.60 4.30,1.90 2.80,2.80 1.90,4.30 1.60,6.40"/>
    </edge>
    <edge id=":A1_0" function="internal">
        <lane id=":A1_0_0" index="0" speed="13.90" length="20.80" shape="-4.80,110.40 -4.80,89.60"/>
        <lane id=":A1_0_1" index="1" speed="13.90" length="20.80" shape="-1.60,110.40 -1.60,89.60"/>
    </edge>
    <edge id=":A1_2" function="internal">
        <lane id=":A1_2_0" index="0" speed="9.26" length="5.01" shape="-1.60,110.40 -0.89,105.44"/>
    </edge>
    <edge id=":A1_3" function="internal">
        <lane id=":A1_3_0" index="0" speed="3.65" length="1.44" shape="-1.60,110.40 -0.80,109.20"/>
    </edge>
    <edge id=":A1_11" function="internal">
        <lane id=":A1_11_0" index="0" speed="9.26" length="14.34" shape="-0.89,105.44 -0.85,105.15 1.40,101.40 5.15,99.15 10.40,98.40"/>
    </edge>
    <edge id=":A1_12" function="internal">
        <lane id=":A1_12_0" index="0" speed="3.65" length="3.23" shape="-0.80,109.20 0.00,108.80 0.80,109.20 1.60,110.40"/>
    </edge>
    <edge id=":A1_4" function="internal">
        <lane id=":A1_4_0" index="0" speed="6.51" length="9.03" shape="10.40,104.80 7.95,105.15 6.20,106.20 5.15,107.95 4.80,110.40"/>
    </edge>
    <edge id=":A1_5" function="internal">
        <lane id=":A1_5_0" index="0" speed="9.26" length="19.35" shape="10.40,101.60 5.15,100.85 1.40,98.60 -0.85,94.85 -1.60,89.60"/>
    </edge>
    <edge id=":A1_6" function="internal">
        <lane id=":A1_6_0" index="0" speed="3.65" length="2.34" shape="10.40,101.60 9.20,100.80 8.80,100.00"/>
    </edge>
    <edge id=":A1_13" function="internal">
        <lane id=":A1_13_0" index="0" speed="3.65" length="2.34" shape="8.80,100.00 9.20,99.20 10.40,98.40"/>
    </edge>
    <edge id=":A1_7" function="internal">
        <lane id=":A1_7_0" index="0" speed="6.51" length="9.03" shape="4.80,89.60 5.15,92.05 6.20,93.80 7.95,94.85 10.40,95.20"/>
    </edge>
    <edge id=":A1_8" function="internal">
        <lane id=":A1_8_0" index="0" speed="13.90" length="20.80" shape="4.80,89.60 4.80,110.40"/>
        <lane id=":A1_8_1" index="1" speed="13.90" length="20.80" shape="1.60,89.60 1.60,110.40"/>
    </edge>
    <edge id=":A1_10" function="internal">
        <lane id=":A1_10_0" index="0" speed="3.65" length="1.44" shape="1.60,89.60 0.80,90.80"/>
    </edge>
    <edge id=":A1_14" function="internal">
        <lane id=":A1_14_0" index="0" speed="3.65" length="3.23" shape="0.80,90.80 0.00,91.20 -0.80,90.80 -1.60,89.60"/>
    </edge>
    <edge id=":A2_0" function="internal">
        <lane id=":A2_0_0" index="0" speed="8.96" length="18.06" shape="6.40,204.80 1.50,204.10 -2.00,202.00 -4.10,198.50 -4.80,193.60"/>
        <lane id=":A2_0_1" index="1" speed="7.66" length="12.90" shape="6.40,201.60 2.90,201.10 0.40,199.60 -1.10,197.10 -1.60,193.60"/>
    </edge>
    <edge id=":A2_2" function="internal">
        <lane id=":A2_2_0" index="0" speed="3.90" length="2.58" shape="4.80,193.60 4.90,194.30 5.20,194.80 5.70,195.10 6.40,195.20"/>
        <lane id=":A2_2_1" index="1" speed="6.08" length="7.74" shape="1.60,193.60 1.90,195.70 2.80,197.20 4.30,198.10 6.40,198.40"/>
    </edge>
    <edge id=":B0_0" function="internal">
        <lane id=":B0_0_0" index="0" speed="6.51" length="9.03" shape="95.20,10.40 94.85,7.95 93.80,6.20 92.05,5.15 89.60,4.80"/>
    </edge>
    <edge id=":B0_1" function="internal">
        <lane id=":B0_1_0" index="0" speed="9.26" length="19.35" shape="98.40,10.40 99.15,5.15 101.40,1.40 105.15,-0.85 110.40,-1.60"/>
    </edge>
    <edge id=":B0_2" function="internal">
        <lane id=":B0_2_0" index="0" speed="3.65" length="2.34" shape="98.40,10.40 99.20,9.20 100.00,8.80"/>
    </edge>
    <edge id=":B0_11" function="internal">
        <lane id=":B0_11_0" index="0" speed="3.65" length="2.34" shape="100.00,8.80 100.80,9.20 101.60,10.40"/>
    </edge>
    <edge id=":B0_3" function="internal">
        <lane id=":B0_3_0" index="0" speed="6.51" length="9.03" shape="110.40,4.80 107.95,5.15 106.20,6.20 105.15,7.95 104.80,10.40"/>
    </edge>
    <edge id=":B0_4" function="internal">
        <lane id=":B0_4_0" index="0" speed="13.90" length="20.80" shape="110.40,4.80 89.60,4.80"/>
        <lane id=":B0_4_1" index="1" speed="13.90" length="20.80" shape="110.40,1.60 89.60,1.60"/>
    </edge>
    <edge id=":B0_6" function="internal">
        <lane id=":B0_6_0" index="0" speed="3.65" length="1.44" shape="110.40,1.60 109.20,0.80"/>
    </edge>
    <edge id=":B0_12" function="internal">
        <lane id=":B0_12_0" index="0" speed="3.65" length="3.23" shape="109.20,0.80 108.80,0.00 109.20,-0.80 110.40,-1.60"/>
    </edge>
    <edge id=":B0_7" function="internal">
        <lane id=":B0_7_0" index="0" speed="13.90" length="20.80" shape="89.60,-4.80 110.40,-4.80"/>
        <lane id=":B0_7_1" index="1" speed="13.90" length="20.80" shape="89.60,-1.60 110.40,-1.60"/>
    </edge>
    <edge id=":B0_9" function="internal">
        <lane id=":B0_9_0" index="0" speed="9.26" length="5.01" shape="89.60,-1.60 94.56,-0.89"/>
    </edge>
    <edge id=":B0_10" function="internal">
        <lane id=":B0_10_0" index="0" speed="3.65" length="1.44" shape="89.60,-1.60 90.80,-0.80"/>
    </edge>
    <edge id=":B0_13" function="internal">
        <lane id=":B0_13_0" index="0" speed="9.26" length="14.34" shape="94.56,-0.89 94.85,-0.85 98.60,1.40 100.85,5.15 101.60,10.40"/>
    </edge>
    <edge id=":B0_14" function="internal">
        <lane id=":B0_14_0" index="0" speed="3.65" length="3.23" shape="90.80,-0.80 91.20,0.00 90.80,0.80 89.60,1.60"/>
    </edge>
    <edge id=":B1_0" function="internal">
        <lane id=":B1_0_0" index="0" speed="6.51" length="9.03" shape="95.20,110.40 94.85,107.95 93.80,106.20 92.05,105.15 89.60,104.80"/>
    </edge>
    <edge id=":B1_1" function="internal">
        <lane id=":B1_1_0" index="0" speed="13.90" length="20.80" shape="95.20,110.40 95.20,89.60"/>
        <lane id=":B1_1_1" index="1" speed="13.90" length="20.80" shape="98.40,110.40 98.40,89.60"/>
    </edge>
    <edge id=":B1_3" function="internal">
        <lane id=":B1_3_0" index="0" speed="9.26" length="5.01" shape="98.40,110.40 99.11,105.44"/>
    </edge>
    <edge id=":B1_4" function="internal">
        <lane id=":B1_4_0" index="0" speed="3.65" length="1.44" shape="98.40,110.40 99.20,109.20"/>
    </edge>
    <edge id=":B1_20" function="internal">
        <lane id=":B1_20_0" index="0" speed="9.26" length="14.34" shape="99.11,105.44 99.15,105.15 101.40,101.40 105.15,99.15 110.40,98.40"/>
    </edge>
    <edge id=":B1_21" function="internal">
        <lane id=":B1_21_0" index="0" speed="3.65" length="3.23" shape="99.20,109.20 100.00,108.80 100.80,109.20 101.60,110.40"/>
    </edge>
    <edge id=":B1_5" function="internal">
        <lane id=":B1_5_0" index="0" speed="6.51" length="9.03" shape="110.40,104.80 107.95,105.15 106.20,106.20 105.15,107.95 104.80,110.40"/>
    </edge>
    <edge id=":B1_6" function="internal">
        <lane id=":B1_6_0" index="0" speed="13.90" length="20.80" shape="110.40,104.80 89.60,104.80"/>
        <lane id=":B1_6_1" index="1" speed="13.90" length="20.80" shape="110.40,101.60 89.60,101.60"/>
    </edge>
    <edge id=":B1_8" function="internal">
        <lane id=":B1_8_0" index="0" speed="9.26" length="5.01" shape="110.40,101.60 105.44,100.89"/>
    </edge>
    <edge id=":B1_9" function="internal">
        <lane id=":B1_9_0" index="0" speed="3.65" length="1.44" shape="110.40,101.60 109.20,100.80"/>
    </edge>
    <edge id=":B1_22" function="internal">
        <lane id=":B1_22_0" index="0" speed="9.26" length="14.34" shape="105.44,100.89 105.15,100.85 101.40,98.60 99.15,94.85 98.40,89.60"/>
    </edge>
    <edge id=":B1_23" function="internal">
        <lane id=":B1_23_0" index="0" speed="3.65" length="3.23" shape="109.20,100.80 108.80,100.00 109.20,99.20 110.40,98.40"/>
    </edge>
    <edge id=":B1_10" function="internal">
        <lane id=":B1_10_0" index="0" speed="6.51" length="9.03" shape="104.80,89.60 105.15,92.05 106.20,93.80 107.95,94.85 110.40,95.20"/>
    </edge>
    <edge id=":B1_11" function="internal">
        <lane id=":B1_11_0" index="0" speed="13.90" length="20.80" shape="104.80,89.60 104.80,110.40"/>
        <lane id=":B1_11_1" index="1" speed="13.90" length="20.80" shape="101.60,89.60 101.60,110.40"/>
    </edge>
    <edge id=":B1_13" function="internal">
        <lane id=":B1_13_0" index="0" speed="9.26" length="5.01" shape="101.60,89.60 100.89,94.56"/>
    </edge>
    <edge id=":B1_14" function="internal">
        <lane id=":B1_14_0" index="0" speed="3.65" length="1.44" shape="101.60,89.60 100.80,90.80"/>
    </edge>
    <edge id=":B1_24" function="internal">
        <lane id=":B1_24_0" index="0" speed="9.26" length="14.34" shape="100.89,94.56 100.85,94.85 98.60,98.60 94.85,100.85 89.60,101.60"/>
    </edge>
    <edge id=":B1_25" function="internal">
        <lane id=":B1_25_0" index="0" speed="3.65" length="3.23" shape="100.80,90.80 100.00,91.20 99.20,90.80 98.40,89.60"/>
    </edge>
    <edge id=":B1_15" function="internal">
        <lane id=":B1_15_0" index="0" speed="6.51" length="9.03" shape="89.60,95.20 92.05,94.85 93.80,93.80 94.85,92.05 95.20,89.60"/>
    </edge>
    <edge id=":B1_16" function="internal">
        <lane id=":B1_16_0" index="0" speed="13.90" length="20.80" shape="89.60,95.20 110.40,95.20"/>
        <lane id=":B1_16_1" index="1" speed="13.90" length="20.80" shape="89.60,98.40 110.40,98.40"/>
    </edge>
    <edge id=":B1_18" function="internal">
        <lane id=":B1_18_0" index="0" speed="9.26" length="5.01" shape="89.60,98.40 94.56,99.11"/>
    </edge>
    <edge id=":B1_19" function="internal">
        <lane id=":B1_19_0" index="0" speed="3.65" length="1.44" shape="89.60,98.40 90.80,99.20"/>
    </edge>
    <edge id=":B1_26" function="internal">
        <lane id=":B1_26_0" index="0" speed="9.26" length="14.34" shape="94.56,99.11 94.85,99.15 98.60,101.40 100.85,105.15 101.60,110.40"/>
    </edge>
    <edge id=":B1_27" function="internal">
        <lane id=":B1_27_0" index="0" speed="3.65" length="3.23" shape="90.80,99.20 91.20,100.00 90.80,100.80 89.60,101.60"/>
    </edge>
    <edge id=":B2_0" function="internal">
        <lane id=":B2_0_0" index="0" speed="13.90" length="20.80" shape="110.40,204.80 89.60,204.80"/>
        <lane id=":B2_0_1" index="1" speed="13.90" length="20.80" shape="110.40,201.60 89.60,201.60"/>
    </edge>
    <edge id=":B2_2" function="internal">
        <lane id=":B2_2_0" index="0" speed="9.26" length="5.01" shape="110.40,201.60 105.44,200.89"/>
    </edge>
    <edge id=":B2_3" function="internal">
        <lane id=":B2_3_0" index="0" speed="3.65" length="1.44" shape="110.40,201.60 109.20,200.80"/>
    </edge>
    <edge id=":B2_11" function="internal">
        <lane id=":B2_11_0" index="0" speed="9.26" length="14.34" shape="105.44,200.89 105.15,200.85 101.40,198.60 99.15,194.85 98.40,189.60"/>
    </edge>
    <edge id=":B2_12" function="internal">
        <lane id=":B2_12_0" index="0" speed="3.65" length="3.23" shape="109.20,200.80 108.80,200.00 109.20,199.20 110.40,198.40"/>
    </edge>
    <edge id=":B2_4" function="internal">
        <lane id=":B2_4_0" index="0" speed="6.51" length="9.03" shape="104.80,189.60 105.15,192.05 106.20,193.80 107.95,194.85 110.40,195.20"/>
    </edge>
    <edge id=":B2_5" function="internal">
        <lane id=":B2_5_0" index="0" speed="9.26" length="19.35" shape="101.60,189.60 100.85,194.85 98.60,198.60 94.85,200.85 89.60,201.60"/>
    </edge>
    <edge id=":B2_6" function="internal">
        <lane id=":B2_6_0" index="0" speed="3.65" length="2.34" shape="101.60,189.60 100.80,190.80 100.00,191.20"/>
    </edge>
    <edge id=":B2_13" function="internal">
        <lane id=":B2_13_0" index="0" speed="3.65" length="2.34" shape="100.00,191.20 99.20,190.80 98.40,189.60"/>
    </edge>
    <edge id=":B2_7" function="internal">
        <lane id=":B2_7_0" index="0" speed="6.51" length="9.03" shape="89.60,195.20 92.05,194.85 93.80,193.80 94.85,192.05 95.20,189.60"/>
    </edge>
    <edge id=":B2_8" function="internal">
        <lane id=":B2_8_0" index="0" speed="13.90" length="20.80" shape="89.60,195.20 110.40,195.20"/>
        <lane id=":B2_8_1" index="1" speed="13.90" length="20.80" shape="89.60,198.40 110.40,198.40"/>
    </edge>
    <edge id=":B2_10" function="internal">
        <lane id=":B2_10_0" index="0" speed="3.65" length="1.44" shape="89.60,198.40 90.80,199.20"/>
    </edge>
    <edge id=":B2_14" function="internal">
        <lane id=":B2_14_0" index="0" speed="3.65" length="3.23" shape="90.80,199.20 91.20,200.00 90.80,200.80 89.60,201.60"/>
    </edge>
    <edge id=":C0_0" function="internal">
        <lane id=":C0_0_0" index="0" speed="3.90" length="2.58" shape="195.20,6.40 195.10,5.70 194.80,5.20 194.30,4.90 193.60,4.80"/>
        <lane id=":C0_0_1" index="1" speed="6.08" length="7.74" shape="198.40,6.40 198.10,4.30 197.20,2.80 195.70,1.90 193.60,1.60"/>
    </edge>
    <edge id=":C0_2" function="internal">
        <lane id=":C0_2_0" index="0" speed="8.96" length="18.06" shape="193.60,-4.80 198.50,-4.10 202.00,-2.00 204.10,1.50 204.80,6.40"/>
        <lane id=":C0_2_1" index="1" speed="7.66" length="12.90" shape="193.60,-1.60 197.10,-1.10 199.60,0.40 201.10,2.90 201.60,6.40"/>
    </edge>
    <edge id=":C1_0" function="internal">
        <lane id=":C1_0_0" index="0" speed="6.51" length="9.03" shape="195.20,110.40 194.85,107.95 193.80,106.20 192.05,105.15 189.60,104.80"/>
    </edge>
    <edge id=":C1_1" function="internal">
        <lane id=":C1_1_0" index="0" speed="13.90" length="20.80" shape="195.20,110.40 195.20,89.60"/>
        <lane id=":C1_1_1" index="1" speed="13.90" length="20.80" shape="198.40,110.40 198.40,89.60"/>
    </edge>
    <edge id=":C1_3" function="internal">
        <lane id=":C1_3_0" index="0" speed="3.65" length="1.44" shape="198.40,110.40 199.20,109.20"/>
    </edge>
    <edge id=":C1_11" function="internal">
        <lane id=":C1_11_0" index="0" speed="3.65" length="3.23" shape="199.20,109.20 200.00,108.80 200.80,109.20 201.60,110.40"/>
    </edge>
    <edge id=":C1_4" function="internal">
        <lane id=":C1_4_0" index="0" speed="13.90" length="20.80" shape="204.80,89.60 204.80,110.40"/>
        <lane id=":C1_4_1" index="1" speed="13.90" length="20.80" shape="201.60,89.60 201.60,110.40"/>
    </edge>
    <edge id=":C1_6" function="internal">
        <lane id=":C1_6_0" index="0" speed="9.26" length="5.01" shape="201.60,89.60 200.89,94.56"/>
    </edge>
    <edge id=":C1_7" function="internal">
        <lane id=":C1_7_0" index="0" speed="3.65" length="1.44" shape="201.60,89.60 200.80,90.80"/>
    </edge>
    <edge id=":C1_12" function="internal">
        <lane id=":C1_12_0" index="0" speed="9.26" length="14.34" shape="200.89,94.56 200.85,94.85 198.60,98.60 194.85,100.85 189.60,101.60"/>
    </edge>
    <edge id=":C1_13" function="internal">
        <lane id=":C1_13_0" index="0" speed="3.65" length="3.23" shape="200.80,90.80 200.00,91.20 199.20,90.80 198.40,89.60"/>
    </edge>
    <edge id=":C1_8" function="internal">
        <lane id=":C1_8_0" index="0" speed="6.51" length="9.03" shape="189.60,95.20 192.05,94.85 193.80,93.80 194.85,92.05 195.20,89.60"/>
    </edge>
    <edge id=":C1_9" function="internal">
        <lane id=":C1_9_0" index="0" speed="9.26" length="19.35" shape="189.60,98.40 194.85,99.15 198.60,101.40 200.85,105.15 201.60,110.40"/>
    </edge>
    <edge id=":C1_10" function="internal">
        <lane id=":C1_10_0" index="0" speed="3.65" length="2.34" shape="189.60,98.40 190.80,99.20 191.20,100.00"/>
    </edge>
    <edge id=":C1_14" function="internal">
        <lane id=":C1_14_0" index="0" speed="3.65" length="2.34" shape="191.20,100.00 190.80,100.80 189.60,101.60"/>
    </edge>
    <edge id=":C2_0" function="internal">
        <lane id=":C2_0_0" index="0" speed="8.96" length="18.06" shape="204.80,193.60 204.10,198.50 202.00,202.00 198.50,204.10 193.60,204.80"/>
        <lane id=":C2_0_1" index="1" speed="7.66" length="12.90" shape="201.60,193.60 201.10,197.10 199.60,199.60 197.10,201.10 193.60,201.60"/>
    </edge>
    <edge id=":C2_2" function="internal">
        <lane id=":C2_2_0" index="0" speed="3.90" length="2.58" shape="193.60,195.20 194.30,195.10 194.80,194.80 195.10,194.30 195.20,193.60"/>
        <lane id=":C2_2_1" index="1" speed="6.08" length="7.74" shape="193.60,198.40 195.70,198.10 197.20,197.20 198.10,195.70 198.40,193.60"/>
    </edge>

    <edge id="A0A1" from="A0" to="A1" priority="-1">
        <lane id="A0A1_0" index="0" speed="13.90" length="83.20" shape="4.80,6.40 4.80,89.60"/>
        <lane id="A0A1_1" index="1" speed="13.90" length="83.20" shape="1.60,6.40 1.60,89.60"/>
    </edge>
    <edge id="A0B0" from="A0" to="B0" priority="-1">
        <lane id="A0B0_0" index="0" speed="13.90" length="83.20" shape="6.40,-4.80 89.60,-4.80"/>
        <lane id="A0B0_1" index="1" speed="13.90" length="83.20" shape="6.40,-1.60 89.60,-1.60"/>
    </edge>
    <edge id="A1A0" from="A1" to="A0" priority="-1">
        <lane id="A1A0_0" index="0" speed="13.90" length="83.20" shape="-4.80,89.60 -4.80,6.40"/>
        <lane id="A1A0_1" index="1" speed="13.90" length="83.20" shape="-1.60,89.60 -1.60,6.40"/>
    </edge>
    <edge id="A1A2" from="A1" to="A2" priority="-1">
        <lane id="A1A2_0" index="0" speed="13.90" length="83.20" shape="4.80,110.40 4.80,193.60"/>
        <lane id="A1A2_1" index="1" speed="13.90" length="83.20" shape="1.60,110.40 1.60,193.60"/>
    </edge>
    <edge id="A1B1" from="A1" to="B1" priority="-1">
        <lane id="A1B1_0" index="0" speed="13.90" length="79.20" shape="10.40,95.20 89.60,95.20"/>
        <lane id="A1B1_1" index="1" speed="13.90" length="79.20" shape="10.40,98.40 89.60,98.40"/>
    </edge>
    <edge id="A2A1" from="A2" to="A1" priority="-1">
        <lane id="A2A1_0" index="0" speed="13.90" length="83.20" shape="-4.80,193.60 -4.80,110.40"/>
        <lane id="A2A1_1" index="1" speed="13.90" length="83.20" shape="-1.60,193.60 -1.60,110.40"/>
    </edge>
    <edge id="A2B2" from="A2" to="B2" priority="-1">
        <lane id="A2B2_0" index="0" speed="13.90" length="83.20" shape="6.40,195.20 89.60,195.20"/>
        <lane id="A2B2_1" index="1" speed="13.90" length="83.20" shape="6.40,198.40 89.60,198.40"/>
    </edge>
    <edge id="B0A0" from="B0" to="A0" priority="-1">
        <lane id="B0A0_0" index="0" speed="13.90" length="83.20" shape="89.60,4.80 6.40,4.80"/>
        <lane id="B0A0_1" index="1" speed="13.90" length="83.20" shape="89.60,1.60 6.40,1.60"/>
    </edge>
    <edge id="B0B1" from="B0" to="B1" priority="-1">
        <lane id="B0B1_0" index="0" speed="13.90" length="79.20" shape="104.80,10.40 104.80,89.60"/>
        <lane id="B0B1_1" index="1" speed="13.90" length="79.20" shape="101.60,10.40 101.60,89.60"/>
    </edge>
    <edge id="B0C0" from="B0" to="C0" priority="-1">
        <lane id="B0C0_0" index="0" speed="13.90" length="83.20" shape="110.40,-4.80 193.60,-4.80"/>
        <lane id="B0C0_1" index="1" speed="13.90" length="83.20" shape="110.40,-1.60 193.60,-1.60"/>
    </edge>
    <edge id="B1A1" from="B1" to="A1" priority="-1">
        <lane id="B1A1_0" index="0" speed="13.90" length="79.20" shape="89.60,104.80 10.40,104.80"/>
        <lane id="B1A1_1" index="1" speed="13.90" length="79.20" shape="89.60,101.60 10.40,101.60"/>
    </edge>
    <edge id="B1B0" from="B1" to="B0" priority="-1">
        <lane id="B1B0_0" index="0" speed="13.90" length="79.20" shape="95.20,89.60 95.20,10.40"/>
        <lane id="B1B0_1" index="1" speed="13.90" length="79.20" shape="98.40,89.60 98.40,10.40"/>
    </edge>
    <edge id="B1B2" from="B1" to="B2" priority="-1">
        <lane id="B1B2_0" index="0" speed="13.90" length="79.20" shape="104.80,110.40 104.80,189.60"/>
        <lane id="B1B2_1" index="1" speed="13.90" length="79.20" shape="101.60,110.40 101.60,189.60"/>
    </edge>
    <edge id="B1C1" from="B1" to="C1" priority="-1">
        <lane id="B1C1_0" index="0" speed="13.90" length="79.20" shape="110.40,95.20 189.60,95.20"/>
        <lane id="B1C1_1" index="1" speed="13.90" length="79.20" shape="110.40,98.40 189.60,98.40"/>
    </edge>
    <edge id="B2A2" from="B2" to="A2" priority="-1">
        <lane id="B2A2_0" index="0" speed="13.90" length="83.20" shape="89.60,204.80 6.40,204.80"/>
        <lane id="B2A2_1" index="1" speed="13.90" length="83.20" shape="89.60,201.60 6.40,201.60"/>
    </edge>
    <edge id="B2B1" from="B2" to="B1" priority="-1">
        <lane id="B2B1_0" index="0" speed="13.90" length="79.20" shape="95.20,189.60 95.20,110.40"/>
        <lane id="B2B1_1" index="1" speed="13.90" length="79.20" shape="98.40,189.60 98.40,110.40"/>
    </edge>
    <edge id="B2C2" from="B2" to="C2" priority="-1">
        <lane id="B2C2_0" index="0" speed="13.90" length="83.20" shape="110.40,195.20 193.60,195.20"/>
        <lane id="B2C2_1" index="1" speed="13.90" length="83.20" shape="110.40,198.40 193.60,198.40"/>
    </edge>
    <edge id="C0B0" from="C0" to="B0" priority="-1">
        <lane id="C0B0_0" index="0" speed="13.90" length="83.20" shape="193.60,4.80 110.40,4.80"/>
        <lane id="C0B0_1" index="1" speed="13.90" length="83.20" shape="193.60,1.60 110.40,1.60"/>
    </edge>
    <edge id="C0C1" from="C0" to="C1" priority="-1">
        <lane id="C0C1_0" index="0" speed="13.90" length="83.20" shape="204.80,6.40 204.80,89.60"/>
        <lane id="C0C1_1" index="1" speed="13.90" length="83.20" shape="201.60,6.40 201.60,89.60"/>
    </edge>
    <edge id="C1B1" from="C1" to="B1" priority="-1">
        <lane id="C1B1_0" index="0" speed="13.90" length="79.20" shape="189.60,104.80 110.40,104.80"/>
        <lane id="C1B1_1" index="1" speed="13.90" length="79.20" shape="189.60,101.60 110.40,101.60"/>
    </edge>
    <edge id="C1C0" from="C1" to="C0" priority="-1">
        <lane id="C1C0_0" index="0" speed="13.90" length="83.20" shape="195.20,89.60 195.20,6.40"/>
        <lane id="C1C0_1" index="1" speed="13.90" length="83.20" shape="198.40,89.60 198.40,6.40"/>
    </edge>
    <edge id="C1C2" from="C1" to="C2" priority="-1">
        <lane id="C1C2_0" index="0" speed="13.90" length="83.20" shape="204.80,110.40 204.80,193.60"/>
        <lane id="C1C2_1" index="1" speed="13.90" length="83.20" shape="201.60,110.40 201.60,193.60"/>
    </edge>
    <edge id="C2B2" from="C2" to="B2" priority="-1">
        <lane id="C2B2_0" index="0" speed="13.90" length="83.20" shape="193.60,204.80 110.40,204.80"/>
        <lane id="C2B2_1" index="1" speed="13.90" length="83.20" shape="193.60,201.60 110.40,201.60"/>
    </edge>
    <edge id="C2C1" from="C2" to="C1" priority="-1">
        <lane id="C2C1_0" index="0" speed="13.90" length="83.20" shape="195.20,193.60 195.20,110.40"/>
        <lane id="C2C1_1" index="1" speed="13.90" length="83.20" shape="198.40,193.60 198.40,110.40"/>
    </edge>

    <tlLogic id="A1" type="static" programID="0" offset="0">
        <phase duration="42" state="GGggrrrGGGg"/>
        <phase duration="3"  state="yyyyrrrGyyy"/>
        <phase duration="42" state="rrrrGGgGrrr"/>
        <phase duration="3"  state="rrrryyyGrrr"/>
    </tlLogic>
    <tlLogic id="B0" type="static" programID="0" offset="0">
        <phase duration="42" state="rrrGGGgGGgg"/>
        <phase duration="3"  state="rrrGyyyyyyy"/>
        <phase duration="42" state="GGgGrrrrrrr"/>
        <phase duration="3"  state="yyyGrrrrrrr"/>
    </tlLogic>
    <tlLogic id="B1" type="static" programID="0" offset="0">
        <phase duration="42" state="GGGggrrrrrGGGggrrrrr"/>
        <phase duration="3"  state="yyyyyrrrrryyyyyrrrrr"/>
        <phase duration="42" state="rrrrrGGGggrrrrrGGGgg"/>
        <phase duration="3"  state="rrrrryyyyyrrrrryyyyy"/>
    </tlLogic>
    <tlLogic id="B2" type="static" programID="0" offset="0">
        <phase duration="42" state="GGggrrrGGGg"/>
        <phase duration="3"  state="yyyyrrrGyyy"/>
        <phase duration="42" state="rrrrGGgGrrr"/>
        <phase duration="3"  state="rrrryyyGrrr"/>
    </tlLogic>
    <tlLogic id="C1" type="static" programID="0" offset="0">
        <phase duration="42" state="GGGgGGggrrr"/>
        <phase duration="3"  state="Gyyyyyyyrrr"/>
        <phase duration="42" state="GrrrrrrrGGg"/>
        <phase duration="3"  state="Grrrrrrryyy"/>
    </tlLogic>

    <junction id="A0" type="priority" x="0.00" y="0.00" incLanes="A1A0_0 A1A0_1 B0A0_0 B0A0_1" intLanes=":A0_0_0 :A0_0_1 :A0_2_0 :A0_2_1" shape="-6.40,6.40 6.40,6.40 6.40,-6.40 2.49,-6.04 -0.71,-4.98 -3.20,-3.20 -4.98,-0.71 -6.04,2.49">
        <request index="0" response="0000" foes="0000" cont="0"/>
        <request index="1" response="0000" foes="0000" cont="0"/>
        <request index="2" response="0000" foes="0000" cont="0"/>
        <request index="3" response="0000" foes="0000" cont="0"/>
    </junction>
    <junction id="A1" type="traffic_light" x="0.00" y="100.00" incLanes="A2A1_0 A2A1_1 B1A1_0 B1A1_1 A0A1_0 A0A1_1" intLanes=":A1_0_0 :A1_0_1 :A1_11_0 :A1_12_0 :A1_4_0 :A1_5_0 :A1_13_0 :A1_7_0 :A1_8_0 :A1_8_1 :A1_14_0" shape="-6.40,110.40 6.40,110.40 6.84,108.18 7.40,107.40 8.18,106.84 9.18,106.51 10.40,106.40 10.40,93.60 8.18,93.16 7.40,92.60 6.84,91.82 6.51,90.82 6.40,89.60 -6.40,89.60">
        <request index="0"  response="00000000000" foes="10000100000" cont="0"/>
        <request index="1"  response="00000000000" foes="10000100000" cont="0"/>
        <request index="2"  response="01100000000" foes="01101100000" cont="1"/>
        <request index="3"  response="01100000000" foes="01100000000" cont="1"/>
        <request index="4"  response="01100000000" foes="01100000000" cont="0"/>
        <request index="5"  response="01100000111" foes="11100000111" cont="0"/>
        <request index="6"  response="00000000100" foes="00000000100" cont="1"/>
        <request index="7"  response="00000000000" foes="00000000000" cont="0"/>
        <request index="8"  response="00000000000" foes="00000111100" cont="0"/>
        <request index="9"  response="00000000000" foes="00000111100" cont="0"/>
        <request index="10" response="00000100011" foes="00000100011" cont="1"/>
    </junction>
    <junction id="A2" type="priority" x="0.00" y="200.00" incLanes="B2A2_0 B2A2_1 A1A2_0 A1A2_1" intLanes=":A2_0_0 :A2_0_1 :A2_2_0 :A2_2_1" shape="6.40,206.40 6.40,193.60 -6.40,193.60 -6.04,197.51 -4.98,200.71 -3.20,203.20 -0.71,204.98 2.49,206.04">
        <request index="0" response="0000" foes="0000" cont="0"/>
        <request index="1" response="0000" foes="0000" cont="0"/>
        <request index="2" response="0000" foes="0000" cont="0"/>
        <request index="3" response="0000" foes="0000" cont="0"/>
    </junction>
    <junction id="B0" type="traffic_light" x="100.00" y="0.00" incLanes="B1B0_0 B1B0_1 C0B0_0 C0B0_1 A0B0_0 A0B0_1" intLanes=":B0_0_0 :B0_1_0 :B0_11_0 :B0_3_0 :B0_4_0 :B0_4_1 :B0_12_0 :B0_7_0 :B0_7_1 :B0_13_0 :B0_14_0" shape="93.60,10.40 106.40,10.40 106.84,8.18 107.40,7.40 108.18,6.84 109.18,6.51 110.40,6.40 110.40,-6.40 89.60,-6.40 89.60,6.40 91.82,6.84 92.60,7.40 93.16,8.18 93.49,9.18">
        <request index="0"  response="00000110000" foes="00000110000" cont="0"/>
        <request index="1"  response="01110110000" foes="01111110000" cont="0"/>
        <request index="2"  response="01000000000" foes="01000000000" cont="1"/>
        <request index="3"  response="00000000000" foes="00000000000" cont="0"/>
        <request index="4"  response="00000000000" foes="11000000011" cont="0"/>
        <request index="5"  response="00000000000" foes="11000000011" cont="0"/>
        <request index="6"  response="00110000010" foes="00110000010" cont="1"/>
        <request index="7"  response="00000000000" foes="00001000010" cont="0"/>
        <request index="8"  response="00000000000" foes="00001000010" cont="0"/>
        <request index="9"  response="00000110000" foes="00000110110" cont="1"/>
        <request index="10" response="00000110000" foes="00000110000" cont="1"/>
    </junction>