<?xml version="1.0" encoding="UTF-8"?>

<!-- generated on 2025-11-09 14:09:11 by Eclipse SUMO netconvert Version 1.20.0
<configuration xmlns:xsi="http://www.w3.org/2001/XMLSchema-instance" xsi:noNamespaceSchemaLocation="http://sumo.dlr.de/xsd/netconvertConfiguration.xsd">

    <input>
        <sumo-net-file value="osm.net.xml.gz"/>
    </input>

    <output>
        <plain-output-prefix value="edges.txt"/>
        <output.street-names value="true"/>
    </output>

    <processing>
        <geometry.min-radius.fix.railways value="false"/>
        <geometry.max-grade.fix value="false"/>
        <offset.disable-normalization value="true"/>
        <lefthand value="0"/>
    </processing>

    <junctions>
        <no-turnarounds value="true"/>
        <junctions.corner-detail value="5"/>
        <junctions.limit-turn-speed value="5.50"/>
        <rectangular-lane-cut value="0"/>
    </junctions>

    <pedestrian>
        <walkingareas value="0"/>
    </pedestrian>

</configuration>
-->

<nodes version="1.20" xmlns:xsi="http://www.w3.org/2001/XMLSchema-instance" xsi:noNamespaceSchemaLocation="http://sumo.dlr.de/xsd/nodes_file.xsd">
    <location netOffset="-390540.64,-5818976.29" convBoundary="0.00,0.00,1016.33,611.35" origBoundary="13.387099,52.510081,13.402011,52.515434" projParameter="+proj=utm +zone=33 +ellps=WGS84 +datum=WGS84 +units=m +no_defs"/>

    <node id="1001074214" x="603.76" y="68.04" type="dead_end"/>
    <node id="1001074218" x="633.06" y="87.66" type="priority"/>
    <node id="10087191503" x="1007.92" y="393.36" type="priority"/>
    <node id="10210483734" x="281.50" y="577.84" type="dead_end"/>
    <node id="10286920455" x="939.34" y="141.95" type="dead_end"/>
    <node id="10286920456" x="946.20" y="99.51" type="dead_end"/>
    <node id="10286920459" x="875.41" y="131.74" type="dead_end"/>
    <node id="10286920460" x="846.33" y="129.19" type="dead_end"/>
    <node id="10286920461" x="912.65" y="134.94" type="dead_end"/>
    <node id="10286920463" x="912.55" y="135.91" type="dead_end"/>
    <node id="10286920467" x="895.87" y="134.03" type="dead_end"/>
    <node id="10286920469" x="883.95" y="153.56" type="dead_end"/>
    <node id="10286920478" x="845.40" y="141.48" type="dead_end"/>
    <node id="10286920480" x="758.78" y="121.95" type="dead_end"/>
    <node id="10286920491" x="704.25" y="117.89" type="dead_end"/>
    <node id="10286920492" x="703.39" y="131.51" type="dead_end"/>
    <node id="10286920493" x="804.53" y="125.73" type="dead_end"/>
    <node id="10286920494" x="803.49" y="138.38" type="dead_end"/>
    <node id="10286920733" x="334.06" y="46.95" type="dead_end"/>
    <node id="10286992714" x="306.86" y="100.60" type="priority"/>
    <node id="10286992715" x="317.70" y="101.56" type="priority"/>
    <node id="10286992718" x="325.89" y="105.53" type="dead_end"/>
    <node id="10286992732" x="323.71" y="136.18" type="priority"/>
    <node id="10286992739" x="324.49" y="168.45" type="dead_end"/>
    <node id="10286992743" x="298.27" y="211.72" type="priority"/>
    <node id="10286992744" x="309.46" y="212.82" type="priority"/>
    <node id="10286992750" x="297.37" y="250.82" type="priority"/>
    <node id="10286992751" x="305.09" y="260.90" type="priority"/>
    <node id="10286992757" x="318.56" y="302.08" type="dead_end"/>
    <node id="10286992773" x="289.27" y="349.41" type="priority"/>
    <node id="10287240229" x="205.76" y="244.03" type="priority"/>
    <node id="10287240230" x="123.76" y="237.45" type="right_before_left"/>
    <node id="1041979358" x="314.57" y="135.44" type="priority"/>
    <node id="10556649439" x="5.93" y="56.29" type="priority"/>
    <node id="10556649726" x="322.53" y="33.78" type="priority"/>
    <node id="10654225768" x="962.43" y="146.78" type="dead_end"/>
    <node id="10654225769" x="955.47" y="146.55" type="priority"/>
    <node id="10654225770" x="977.68" y="115.68" type="dead_end"/>
    <node id="10654225771" x="977.49" y="110.65" type="dead_end"/>
    <node id="10692552894" x="324.00" y="175.57" type="priority"/>
    <node id="10884008276" x="221.69" y="553.93" type="priority"/>
    <node id="10884008278" x="230.32" y="532.18" type="priority"/>
    <node id="10884008280" x="250.37" y="533.76" type="priority"/>
    <node id="10884008281" x="249.34" y="544.78" type="priority"/>
    <node id="10913812542" x="906.36" y="592.22" type="dead_end"/>
    <node id="10913812568" x="909.29" y="593.89" type="dead_end"/>
    <node id="10946836050" x="792.60" y="509.90" type="priority"/>
    <node id="10946836051" x="882.55" y="539.55" type="priority"/>
    <node id="10946836052" x="776.39" y="504.46" type="priority"/>
    <node id="10946836053" x="893.18" y="543.12" type="priority"/>
    <node id="10962970603" x="953.84" y="493.91" type="dead_end"/>
    <node id="10962970604" x="961.54" y="498.53" type="dead_end"/>
    <node id="10962997105" x="957.83" y="500.71" type="dead_end"/>
    <node id="10962997106" x="959.52" y="497.32" type="dead_end"/>
    <node id="11027489744" x="109.47" y="236.30" type="priority"/>
    <node id="11027489745" x="110.38" y="225.65" type="priority"/>
    <node id="11027489759" x="48.81" y="231.39" type="priority"/>
    <node id="11027489760" x="47.90" y="242.75" type="priority"/>
    <node id="11056415848" x="333.31" y="55.72" type="dead_end"/>
    <node id="11056415849" x="316.49" y="42.24" type="dead_end"/>
    <node id="11056415853" x="314.55" y="69.67" type="dead_end"/>
    <node id="11056416593" x="138.94" y="594.28" type="dead_end"/>
    <node id="11056416596" x="147.73" y="480.18" type="dead_end"/>
    <node id="11056421318" x="182.72" y="256.34" type="dead_end"/>
    <node id="11056421319" x="185.53" y="244.20" type="dead_end"/>
    <node id="11056421320" x="185.75" y="241.18" type="dead_end"/>
    <node id="11056481273" x="759.77" y="106.68" type="dead_end"/>
    <node id="11056481277" x="744.26" y="80.76" type="dead_end"/>
    <node id="11056481278" x="941.32" y="130.61" type="dead_end"/>
    <node id="11056481279" x="942.59" y="122.68" type="dead_end"/>
    <node id="11056481280" x="939.81" y="140.04" type="dead_end"/>
    <node id="11056481281" x="945.08" y="107.25" type="dead_end"/>
    <node id="11056481285" x="963.01" y="105.68" type="dead_end"/>
    <node id="11056481286" x="975.91" y="119.25" type="dead_end"/>
    <node id="11056481287" x="961.56" y="148.82" type="dead_end"/>
    <node id="11056481288" x="968.73" y="133.90" type="dead_end"/>
    <node id="11056481289" x="970.02" y="131.28" type="dead_end"/>
    <node id="11062226566" x="142.86" y="280.50" type="dead_end"/>
    <node id="11062226567" x="142.94" y="278.76" type="dead_end"/>
    <node id="11094330957" x="875.09" y="285.75" type="dead_end"/>
    <node id="11094330958" x="927.46" y="254.70" type="dead_end"/>
    <node id="11094354888" x="892.59" y="144.53" type="dead_end"/>
    <node id="11094354891" x="936.76" y="151.03" type="dead_end"/>
    <node id="11094354895" x="942.27" y="152.89" type="priority"/>
    <node id="11094354897" x="936.78" y="168.42" type="dead_end"/>
    <node id="11094354899" x="907.95" y="146.11" type="dead_end"/>
    <node id="11094466174" x="975.73" y="158.11" type="dead_end"/>
    <node id="11094466184" x="1012.43" y="215.88" type="dead_end"/>
    <node id="11094479130" x="1007.09" y="123.29" type="priority"/>
    <node id="11109235818" x="595.17" y="319.65" type="priority"/>
    <node id="11127978328" x="197.89" y="34.68" type="dead_end"/>
    <node id="11127978329" x="183.87" y="33.54" type="dead_end"/>
    <node id="11127978339" x="164.40" y="32.32" type="dead_end"/>
    <node id="11127978340" x="242.12" y="38.76" type="dead_end"/>
    <node id="11127978348" x="179.89" y="56.49" type="dead_end"/>
    <node id="11127978349" x="24.29" y="44.56" type="dead_end"/>
    <node id="11127978350" x="312.98" y="44.65" type="dead_end"/>
    <node id="11127978351" x="205.45" y="35.98" type="dead_end"/>
    <node id="11127978355" x="40.06" y="22.82" type="dead_end"/>
    <node id="11127978358" x="12.21" y="21.40" type="dead_end"/>
    <node id="11127978360" x="0.00" y="44.91" type="dead_end"/>
    <node id="11178628434" x="410.28" y="53.61" type="dead_end"/>
    <node id="11228307809" x="473.86" y="14.64" type="priority"/>
    <node id="11228307810" x="461.06" y="13.66" type="priority"/>
    <node id="11279968824" x="184.71" y="106.24" type="dead_end"/>
    <node id="11340944641" x="150.68" y="610.83" type="dead_end"/>
    <node id="11340944642" x="142.46" y="610.28" type="dead_end"/>
    <node id="11357432838" x="179.62" y="60.02" type="dead_end"/>
    <node id="11357432839" x="175.88" y="33.20" type="dead_end"/>
    <node id="11357432840" x="174.02" y="56.00" type="dead_end"/>
    <node id="11357432841" x="197.63" y="61.42" type="dead_end"/>
    <node id="11357432844" x="310.92" y="66.88" type="dead_end"/>
    <node id="11357432845" x="312.14" y="68.74" type="dead_end"/>
    <node id="11357432849" x="203.39" y="58.77" type="dead_end"/>
    <node id="11357432851" x="193.79" y="107.80" type="dead_end"/>
    <node id="11357432852" x="176.17" y="106.38" type="dead_end"/>
    <node id="11357432854" x="191.69" y="133.04" type="dead_end"/>
    <node id="11357432855" x="174.28" y="131.65" type="dead_end"/>
    <node id="11357432856" x="178.16" y="131.94" type="priority"/>
    <node id="11357432857" x="187.42" y="132.64" type="priority"/>
    <node id="11374087467" x="309.51" y="66.75" type="dead_end"/>
    <node id="11385244999" x="372.17" y="280.88" type="dead_end"/>
    <node id="11385245000" x="373.68" y="256.77" type="priority"/>
    <node id="11391664971" x="948.33" y="100.16" type="dead_end"/>
    <node id="11391664975" x="905.39" y="4.56" type="dead_end"/>
    <node id="11391664981" x="957.73" y="23.39" type="dead_end"/>
    <node id="11391664983" x="966.19" y="37.15" type="dead_end"/>
    <node id="11391664985" x="979.79" y="68.66" type="dead_end"/>
    <node id="11391664988" x="951.36" y="48.33" type="priority"/>
    <node id="11391664989" x="943.47" y="54.27" type="dead_end"/>
    <node id="11391664991" x="941.73" y="35.68" type="priority"/>
    <node id="11391664992" x="933.89" y="41.76" type="dead_end"/>
    <node id="11391664993" x="920.66" y="24.49" type="priority"/>
    <node id="11391681498" x="968.10" y="15.66" type="dead_end"/>
    <node id="11391695508" x="870.07" y="7.78" type="dead_end"/>
    <node id="11391695519" x="753.82" y="54.50" type="dead_end"/>
    <node id="11391695520" x="751.59" y="81.39" type="dead_end"/>
    <node id="11392047337" x="172.82" y="150.82" type="dead_end"/>
    <node id="11392047338" x="190.26" y="152.21" type="dead_end"/>
    <node id="11392047339" x="103.02" y="145.47" type="priority"/>
    <node id="11392047343" x="95.73" y="226.37" type="right_before_left"/>
    <node id="11392047344" x="110.19" y="227.80" type="priority"/>
    <node id="11392047348" x="48.05" y="240.88" type="priority"/>
    <node id="11392047349" x="75.43" y="242.97" type="priority"/>
    <node id="11392087175" x="186.59" y="229.85" type="dead_end"/>
    <node id="11392087176" x="166.63" y="228.51" type="dead_end"/>
    <node id="11392087179" x="169.33" y="430.65" type="dead_end"/>
    <node id="11392087180" x="164.57" y="255.19" type="dead_end"/>
    <node id="11394364877" x="1006.88" y="133.25" type="dead_end"/>
    <node id="11394364878" x="1008.40" y="124.20" type="dead_end"/>
    <node id="11394364879" x="1011.50" y="126.37" type="dead_end"/>
    <node id="11395330945" x="222.00" y="550.47" type="right_before_left"/>
    <node id="11395330946" x="230.09" y="534.63" type="priority"/>
    <node id="11395330947" x="273.58" y="538.00" type="dead_end"/>
    <node id="11395330948" x="276.12" y="535.64" type="dead_end"/>
    <node id="11395330949" x="272.32" y="554.90" type="dead_end"/>
    <node id="11395330955" x="294.31" y="538.72" type="dead_end"/>
    <node id="11395330956" x="291.16" y="559.02" type="dead_end"/>
    <node id="11395330957" x="291.45" y="556.83" type="dead_end"/>
    <node id="11395330965" x="250.15" y="536.16" type="priority"/>
    <node id="11395330966" x="293.16" y="556.93" type="dead_end"/>
    <node id="11395331004" x="112.18" y="524.61" type="right_before_left"/>
    <node id="11395331005" x="142.49" y="526.97" type="dead_end"/>
    <node id="11395358398" x="422.97" y="549.39" type="dead_end"/>
    <node id="11395358399" x="421.49" y="567.37" type="dead_end"/>
    <node id="11395358404" x="404.61" y="566.03" type="dead_end"/>
    <node id="11395358408" x="405.95" y="547.72" type="dead_end"/>
    <node id="11395358746" x="150.27" y="445.84" type="dead_end"/>
    <node id="11395358748" x="151.56" y="428.99" type="dead_end"/>
    <node id="11395358749" x="84.30" y="423.36" type="right_before_left"/>
    <node id="11395358750" x="90.22" y="342.87" type="right_before_left"/>
    <node id="11395358751" x="157.73" y="348.67" type="dead_end"/>
    <node id="11395358752" x="175.51" y="349.57" type="dead_end"/>
    <node id="11395358754" x="158.95" y="332.24" type="dead_end"/>
    <node id="11395358755" x="176.67" y="333.57" type="dead_end"/>
    <node id="11395358758" x="128.28" y="328.85" type="dead_end"/>
    <node id="11395370969" x="440.74" y="550.94" type="priority"/>
    <node id="11395370971" x="522.01" y="575.11" type="dead_end"/>
    <node id="11395407292" x="288.56" y="358.03" type="dead_end"/>
    <node id="11395407294" x="309.69" y="100.85" type="priority"/>
    <node id="11395407295" x="300.79" y="211.96" type="priority"/>
    <node id="11395407296" x="226.20" y="236.45" type="priority"/>
    <node id="11395407297" x="186.35" y="233.21" type="dead_end"/>
    <node id="11395407298" x="298.23" y="242.14" type="dead_end"/>
    <node id="11395407299" x="296.46" y="260.12" type="dead_end"/>
    <node id="11395407301" x="316.20" y="243.51" type="dead_end"/>
    <node id="11395407302" x="314.75" y="261.78" type="dead_end"/>
    <node id="11395407303" x="311.49" y="295.80" type="dead_end"/>
    <node id="11395407304" x="310.53" y="307.07" type="dead_end"/>
    <node id="11395407305" x="306.52" y="354.33" type="dead_end"/>
    <node id="11395407309" x="290.70" y="537.66" type="dead_end"/>
    <node id="11395407310" x="297.61" y="446.71" type="right_before_left"/>
    <node id="11395407313" x="321.50" y="168.22" type="priority"/>
    <node id="11395407314" x="321.04" y="175.38" type="priority"/>
    <node id="11395407315" x="321.28" y="171.75" type="priority"/>
    <node id="11395407316" x="296.80" y="457.31" type="dead_end"/>
    <node id="11395407317" x="281.89" y="456.18" type="dead_end"/>
    <node id="11395407318" x="168.17" y="447.06" type="dead_end"/>
    <node id="11395407320" x="298.14" y="440.04" type="dead_end"/>
    <node id="11395407321" x="283.11" y="438.86" type="dead_end"/>
    <node id="11395407323" x="305.88" y="359.49" type="dead_end"/>
    <node id="11395407324" x="289.88" y="341.89" type="dead_end"/>
    <node id="11395407325" x="307.63" y="341.99" type="dead_end"/>
    <node id="11395407326" x="321.89" y="162.06" type="dead_end"/>
    <node id="11395407327" x="304.65" y="160.69" type="dead_end"/>
    <node id="11395407328" x="323.00" y="145.25" type="dead_end"/>
    <node id="11395407329" x="305.96" y="143.93" type="dead_end"/>
    <node id="11395407330" x="191.54" y="134.88" type="dead_end"/>
    <node id="11395407331" x="231.28" y="155.27" type="priority"/>
    <node id="11395414081" x="640.35" y="186.70" type="dead_end"/>
    <node id="11395414082" x="644.42" y="128.11" type="dead_end"/>
    <node id="11395414084" x="656.43" y="187.30" type="dead_end"/>
    <node id="11395414088" x="641.53" y="170.10" type="dead_end"/>
    <node id="11395414090" x="506.98" y="159.34" type="priority"/>
    <node id="11395414091" x="600.02" y="166.78" type="priority"/>
    <node id="11395414093" x="531.48" y="180.51" type="priority"/>
    <node id="11395414096" x="496.20" y="177.69" type="priority"/>
    <node id="11395414099" x="321.80" y="163.53" type="dead_end"/>
    <node id="11395414100" x="322.97" y="145.68" type="dead_end"/>
    <node id="11395414101" x="390.91" y="170.66" type="priority"/>
    <node id="11395414103" x="391.03" y="168.30" type="priority"/>
    <node id="11395414104" x="373.21" y="168.34" type="priority"/>
    <node id="11395414105" x="373.79" y="154.81" type="priority"/>
    <node id="11395414106" x="373.26" y="167.07" type="priority"/>
    <node id="11395414107" x="460.58" y="112.82" type="dead_end"/>
    <node id="11395414109" x="457.89" y="147.23" type="priority"/>
    <node id="11395414110" x="452.68" y="172.24" type="dead_end"/>
    <node id="11395414111" x="454.10" y="155.12" type="dead_end"/>
    <node id="11395414113" x="436.21" y="153.89" type="dead_end"/>
    <node id="11395414114" x="434.91" y="171.32" type="dead_end"/>
    <node id="11395414115" x="435.63" y="161.65" type="priority"/>
    <node id="11395414119" x="430.54" y="240.35" type="right_before_left"/>
    <node id="1141824924" x="366.29" y="65.52" type="priority"/>
    <node id="1141824926" x="419.67" y="21.36" type="dead_end"/>
    <node id="1141824933" x="458.63" y="43.69" type="dead_end"/>
    <node id="1141824951" x="411.47" y="39.64" type="dead_end"/>
    <node id="1141824960" x="368.23" y="35.94" type="dead_end"/>
    <node id="1141824970" x="448.26" y="42.76" type="dead_end"/>
    <node id="1141829811" x="448.09" y="10.79" type="priority"/>
    <node id="1141829833" x="689.26" y="12.76" type="priority"/>
    <node id="11459253012" x="740.58" y="587.71" type="dead_end"/>
    <node id="11459253017" x="760.44" y="594.27" type="dead_end"/>
    <node id="11459253018" x="754.36" y="588.05" type="dead_end"/>
    <node id="11459253019" x="745.11" y="585.23" type="dead_end"/>
    <node id="11459253027" x="767.50" y="554.61" type="dead_end"/>
    <node id="11459253029" x="693.47" y="572.88" type="dead_end"/>
    <node id="11459253036" x="709.89" y="595.72" type="priority"/>
    <node id="11459253039" x="741.15" y="585.49" type="dead_end"/>
    <node id="11459253041" x="742.57" y="584.45" type="dead_end"/>
    <node id="11459253042" x="756.55" y="588.71" type="dead_end"/>
    <node id="11459271476" x="696.82" y="592.36" type="dead_end"/>
    <node id="11459271477" x="707.06" y="576.51" type="dead_end"/>
    <node id="11646819817" x="685.04" y="361.42" type="right_before_left"/>
    <node id="11662686686" x="666.07" y="591.82" type="priority"/>
    <node id="1204940509" x="394.88" y="258.43" type="priority"/>
    <node id="1204940520" x="438.61" y="241.02" type="priority"/>
    <node id="12050507230" x="1012.04" y="118.89" type="priority"/>
    <node id="12111661826" x="998.71" y="117.42" type="dead_end"/>
    <node id="12111663742" x="1004.62" y="109.02" type="dead_end"/>
    <node id="12111680034" x="978.15" y="98.67" type="dead_end"/>
    <node id="12111680037" x="1008.59" y="103.35" type="dead_end"/>
    <node id="12150522208" x="976.34" y="159.01" type="dead_end"/>
    <node id="12150522210" x="950.78" y="154.82" type="priority"/>
    <node id="12150522212" x="959.77" y="148.15" type="dead_end"/>
    <node id="12351570627" x="1014.89" y="168.05" type="dead_end"/>
    <node id="12484151713" x="290.98" y="358.23" type="dead_end"/>
    <node id="1263283300" x="471.90" y="88.56" type="traffic_light" tl="joinedS_1263283300_1263283307_1263283312_cluster_1263283302_29207822_29207827_3922677127" tlType="actuated" controlledInner="1123184404#0 375311156#2 375312063#2"/>
    <node id="1263283307" x="473.03" y="75.25" type="traffic_light" tl="joinedS_1263283300_1263283307_1263283312_cluster_1263283302_29207822_29207827_3922677127" tlType="actuated" controlledInner="1123184404#0 375311156#2 375312063#2"/>
    <node id="1263283312" x="433.38" y="72.15" type="traffic_light" tl="joinedS_1263283300_1263283307_1263283312_cluster_1263283302_29207822_29207827_3922677127" tlType="actuated" controlledInner="1123184404#0 375311156#2 375312063#2"/>
    <node id="1267954712" x="697.47" y="589.88" type="dead_end"/>
    <node id="12854275134" x="717.41" y="346.20" type="priority"/>
    <node id="12917712126" x="373.13" y="265.63" type="dead_end"/>
    <node id="12917712128" x="395.93" y="249.06" type="right_before_left"/>
    <node id="12917712129" x="429.68" y="251.38" type="dead_end"/>
    <node id="12917712131" x="445.94" y="256.71" type="dead_end"/>
    <node id="12917712132" x="431.79" y="251.56" type="dead_end"/>
    <node id="12917712135" x="446.19" y="253.60" type="dead_end"/>
    <node id="12917712136" x="634.21" y="267.94" type="dead_end"/>
    <node id="13025586477" x="1012.98" y="124.20" type="dead_end"/>
    <node id="13039121891" x="987.62" y="412.86" type="dead_end"/>
    <node id="13039121892" x="968.59" y="402.07" type="dead_end"/>
    <node id="13039277267" x="1012.97" y="114.76" type="dead_end"/>
    <node id="13039277269" x="1011.46" y="106.39" type="dead_end"/>
    <node id="13039316607" x="1002.18" y="119.86" type="priority"/>
    <node id="13041779518" x="953.70" y="26.39" type="dead_end"/>
    <node id="13041779548" x="948.23" y="26.35" type="dead_end"/>
    <node id="13047999495" x="174.27" y="52.93" type="dead_end"/>
    <node id="13047999497" x="175.62" y="36.42" type="dead_end"/>
    <node id="13053351860" x="909.89" y="1.03" type="dead_end"/>
    <node id="13053351861" x="901.83" y="0.00" type="dead_end"/>
    <node id="13056832707" x="696.36" y="346.29" type="dead_end"/>
    <node id="13056832709" x="652.62" y="269.28" type="dead_end"/>
    <node id="13056832712" x="652.22" y="274.89" type="dead_end"/>
    <node id="13056832715" x="658.63" y="248.91" type="priority"/>
    <node id="13056832716" x="641.64" y="247.71" type="priority"/>
    <node id="13056832717" x="654.40" y="248.62" type="priority"/>
    <node id="13056832719" x="659.75" y="236.32" type="priority"/>
    <node id="13056832720" x="642.68" y="235.06" type="priority"/>
    <node id="13056832721" x="657.51" y="236.15" type="priority"/>
    <node id="13056832725" x="806.91" y="268.08" type="dead_end"/>
    <node id="13056832727" x="916.81" y="190.34" type="dead_end"/>
    <node id="13056832728" x="940.38" y="173.67" type="dead_end"/>
    <node id="13056832730" x="968.72" y="151.73" type="dead_end"/>
    <node id="13056832732" x="845.04" y="252.35" type="dead_end"/>
    <node id="13056832735" x="849.21" y="249.41" type="dead_end"/>
    <node id="13056832736" x="884.05" y="224.85" type="dead_end"/>
    <node id="13056832737" x="898.39" y="214.74" type="dead_end"/>
    <node id="13056832738" x="907.48" y="208.33" type="dead_end"/>
    <node id="13056832739" x="987.96" y="233.75" type="dead_end"/>
    <node id="13056832740" x="943.31" y="171.60" type="dead_end"/>
    <node id="13056832743" x="946.04" y="175.40" type="priority"/>
    <node id="13056832744" x="941.70" y="184.21" type="dead_end"/>
    <node id="13056832745" x="936.24" y="176.60" type="dead_end"/>
    <node id="13056832757" x="761.38" y="310.39" type="dead_end"/>
    <node id="13056832789" x="839.59" y="244.96" type="dead_end"/>
    <node id="13056832792" x="835.38" y="259.18" type="dead_end"/>
    <node id="13056832793" x="830.01" y="251.74" type="dead_end"/>
    <node id="13056832798" x="761.87" y="311.08" type="dead_end"/>
    <node id="13056832799" x="756.58" y="303.68" type="dead_end"/>
    <node id="13056832813" x="751.05" y="318.70" type="dead_end"/>
    <node id="13056832814" x="745.74" y="311.35" type="dead_end"/>
    <node id="13056832835" x="683.73" y="353.18" type="priority"/>
    <node id="13056832836" x="703.20" y="357.30" type="dead_end"/>
    <node id="13056832840" x="697.14" y="347.53" type="dead_end"/>
    <node id="13056832841" x="699.76" y="351.76" type="priority"/>
    <node id="13056832842" x="948.72" y="179.13" type="dead_end"/>
    <node id="13059673229" x="430.46" y="111.22" type="dead_end"/>
    <node id="13059696897" x="457.25" y="155.38" type="dead_end"/>
    <node id="13059703201" x="470.91" y="100.54" type="dead_end"/>
    <node id="13059703202" x="460.86" y="108.88" type="dead_end"/>
    <node id="13059881414" x="914.99" y="0.87" type="dead_end"/>
    <node id="13062400355" x="970.14" y="24.51" type="priority"/>
    <node id="13086762908" x="825.13" y="353.19" type="dead_end"/>
    <node id="13088745203" x="989.83" y="230.37" type="priority"/>
    <node id="13088745262" x="1005.95" y="142.93" type="dead_end"/>
    <node id="13109407468" x="192.30" y="15.38" type="priority"/>
    <node id="13109435555" x="445.72" y="152.72" type="right_before_left"/>
    <node id="13110403848" x="344.04" y="263.71" type="dead_end"/>
    <node id="13110403849" x="345.34" y="245.58" type="dead_end"/>
    <node id="13110488915" x="633.00" y="284.05" type="dead_end"/>
    <node id="13110488917" x="444.84" y="270.20" type="dead_end"/>
    <node id="13110505651" x="631.82" y="300.86" type="dead_end"/>
    <node id="13110505654" x="617.79" y="350.38" type="dead_end"/>
    <node id="13110505656" x="438.46" y="352.04" type="dead_end"/>
    <node id="13110511790" x="665.66" y="356.10" type="dead_end"/>
    <node id="13110521521" x="665.52" y="350.02" type="dead_end"/>
    <node id="13110523674" x="675.76" y="357.06" type="dead_end"/>
    <node id="13110523675" x="644.89" y="306.39" type="dead_end"/>
    <node id="13110523678" x="636.64" y="349.45" type="dead_end"/>
    <node id="13110523682" x="642.63" y="305.24" type="dead_end"/>
    <node id="13110523684" x="638.15" y="303.44" type="priority"/>
    <node id="13110523685" x="670.02" y="347.57" type="dead_end"/>
    <node id="13110523692" x="634.22" y="344.43" type="dead_end"/>
    <node id="13110523693" x="632.55" y="345.03" type="dead_end"/>
    <node id="13110523698" x="677.99" y="355.92" type="dead_end"/>
    <node id="13110523700" x="663.51" y="293.14" type="dead_end"/>
    <node id="13110546802" x="647.01" y="304.84" type="dead_end"/>
    <node id="13110546803" x="652.06" y="301.13" type="priority"/>
    <node id="13110894565" x="644.15" y="385.61" type="priority"/>
    <node id="13110901122" x="437.37" y="368.03" type="dead_end"/>
    <node id="13110901123" x="495.62" y="372.61" type="dead_end"/>
    <node id="13110901124" x="437.52" y="365.83" type="dead_end"/>
    <node id="13110901131" x="547.33" y="376.56" type="dead_end"/>
    <node id="13110940322" x="670.22" y="370.02" type="dead_end"/>
    <node id="13110940323" x="672.99" y="357.78" type="dead_end"/>
    <node id="13110940325" x="672.58" y="359.58" type="dead_end"/>
    <node id="13110940326" x="671.71" y="363.46" type="priority"/>
    <node id="13110940327" x="633.19" y="361.58" type="dead_end"/>
    <node id="13110940329" x="636.13" y="351.25" type="dead_end"/>
    <node id="13110996218" x="431.22" y="448.95" type="dead_end"/>
    <node id="13110996219" x="521.60" y="447.31" type="dead_end"/>
    <node id="13110996222" x="673.12" y="470.76" type="dead_end"/>
    <node id="13110996223" x="685.12" y="373.28" type="dead_end"/>
    <node id="13110996224" x="684.00" y="472.63" type="dead_end"/>
    <node id="13110996226" x="696.36" y="374.52" type="dead_end"/>
    <node id="13110996230" x="674.53" y="471.00" type="dead_end"/>
    <node id="13110996236" x="692.49" y="374.09" type="priority"/>
    <node id="13115299162" x="516.61" y="442.98" type="priority"/>
    <node id="13115299163" x="516.45" y="460.71" type="priority"/>
    <node id="13115299164" x="516.57" y="447.15" type="priority"/>
    <node id="13115313527" x="557.99" y="480.18" type="priority"/>
    <node id="13115313528" x="559.51" y="463.37" type="priority"/>
    <node id="13115326996" x="429.65" y="468.00" type="dead_end"/>
    <node id="13115326997" x="454.86" y="469.24" type="priority"/>
    <node id="13115326999" x="671.10" y="486.78" type="dead_end"/>
    <node id="13115327709" x="823.45" y="354.94" type="dead_end"/>
    <node id="13115327711" x="831.96" y="346.01" type="dead_end"/>
    <node id="13115327714" x="830.00" y="348.07" type="dead_end"/>
    <node id="13115329785" x="673.69" y="569.81" type="dead_end"/>
    <node id="13115347101" x="558.31" y="476.62" type="priority"/>
    <node id="13115347102" x="662.88" y="569.03" type="dead_end"/>
    <node id="13115347103" x="672.81" y="473.19" type="dead_end"/>
    <node id="13115347104" x="671.38" y="484.51" type="dead_end"/>
    <node id="13115386377" x="774.45" y="488.12" type="dead_end"/>
    <node id="13115386378" x="776.89" y="480.66" type="dead_end"/>
    <node id="13115386379" x="780.23" y="470.47" type="dead_end"/>
    <node id="13115386380" x="784.89" y="456.25" type="dead_end"/>
    <node id="13115386381" x="791.52" y="436.05" type="dead_end"/>
    <node id="13115386382" x="799.20" y="412.63" type="dead_end"/>
    <node id="13115386383" x="805.13" y="394.55" type="dead_end"/>
    <node id="13115386384" x="807.20" y="388.23" type="dead_end"/>
    <node id="13115409272" x="765.37" y="510.57" type="dead_end"/>
    <node id="13115409283" x="760.14" y="526.32" type="dead_end"/>
    <node id="13115409284" x="682.18" y="489.74" type="dead_end"/>
    <node id="13115409287" x="763.95" y="514.84" type="priority"/>
    <node id="13115410785" x="874.74" y="314.53" type="dead_end"/>
    <node id="13116838705" x="415.02" y="546.73" type="priority"/>
    <node id="13116838706" x="412.98" y="567.86" type="priority"/>
    <node id="13116912940" x="661.28" y="586.83" type="dead_end"/>
    <node id="13116912941" x="671.88" y="587.81" type="dead_end"/>
    <node id="13119525333" x="171.61" y="165.97" type="dead_end"/>
    <node id="13119525334" x="189.13" y="168.05" type="dead_end"/>
    <node id="1569108087" x="301.10" y="244.77" type="rail_signal">
        <param key="railway:signal:direction" value="forward"/>
    </node>
    <node id="1569109894" x="185.35" y="96.84" type="dead_end"/>
    <node id="1602223935" x="446.23" y="146.20" type="priority"/>
    <node id="1602223940" x="483.20" y="149.44" type="priority"/>
    <node id="1602223960" x="506.19" y="169.19" type="right_before_left"/>
    <node id="1602223961" x="599.22" y="176.82" type="priority"/>