<?xml version="1.0" encoding="UTF-8"?>

<!-- generated on 2025-11-09 14:09:11 by Eclipse SUMO netconvert Version 1.20.0
<configuration xmlns:xsi="http://www.w3.org/2001/XMLSchema-instance" xsi:noNamespaceSchemaLocation="http://sumo.dlr.de/xsd/netconvertConfiguration.xsd">

    <input>
        <sumo-net-file value="osm.net.xml.gz"/>
    </input>

    <output>
        <plain-output-prefix value="edges.txt"/>
        <output.street-names value="true"/>
    </output>

    <processing>
        <geometry.min-radius.fix.railways value="false"/>
        <geometry.max-grade.fix value="false"/>
        <offset.disable-normalization value="true"/>
        <lefthand value="0"/>
    </processing>

    <junctions>
        <no-turnarounds value="true"/>
        <junctions.corner-detail value="5"/>
        <junctions.limit-turn-speed value="5.50"/>
        <rectangular-lane-cut value="0"/>
    </junctions>

    <pedestrian>
        <walkingareas value="0"/>
    </pedestrian>

</configuration>
-->

<connections version="1.20" xmlns:xsi="http://www.w3.org/2001/XMLSchema-instance" xsi:noNamespaceSchemaLocation="http://sumo.dlr.de/xsd/connections_file.xsd">
    <connection from="-1009114665#0" to="24509318#1" fromLane="0" toLane="0"/>
    <connection from="-1009114665#0" to="-4611714#5" fromLane="0" toLane="0"/>
    <connection from="-1009114665#0" to="1009114665#0" fromLane="0" toLane="0"/>

    <connection from="-1009114665#1" to="-1009114665#0" fromLane="0" toLane="0"/>

    <connection from="-1009114665#2" to="-1009114665#1" fromLane="0" toLane="0"/>
    <connection from="-1009114665#2" to="371296399#0" fromLane="0" toLane="0"/>

    <connection from="-104428005#0" to="1249342904#2" fromLane="0" toLane="0"/>
    <connection from="-104428005#0" to="-1249342904#1" fromLane="0" toLane="0"/>
    <connection from="-104428005#0" to="104428005#0" fromLane="0" toLane="0"/>

    <connection from="-105747086#0" to="-104428005#0" fromLane="0" toLane="0"/>
    <connection from="-105747086#0" to="104428005#1" fromLane="0" toLane="0"/>

    <connection from="-105747086#1" to="-105747086#0" fromLane="0" toLane="0"/>
    <connection from="-105747086#1" to="105747086#1" fromLane="0" toLane="0"/>

    <connection from="-1073015940#0" to="-1151333057#1" fromLane="0" toLane="0"/>
    <connection from="-1073015940#0" to="-1228777609#1" fromLane="0" toLane="0"/>

    <connection from="-1105574289#1" to="1426216315#3" fromLane="0" toLane="0"/>
    <connection from="-1105574289#1" to="-35557161#3" fromLane="0" toLane="0"/>
    <connection from="-1105574289#1" to="-1426216315#0" fromLane="0" toLane="0"/>
    <connection from="-1105574289#1" to="1105574289#1" fromLane="0" toLane="0"/>

    <connection from="-1124910114#0" to="1124910114#0" fromLane="0" toLane="0"/>

    <connection from="-1124910114#1" to="-1124910114#0" fromLane="0" toLane="0"/>
    <connection from="-1124910114#1" to="1124910114#1" fromLane="0" toLane="0"/>

    <connection from="-1124910119#0" to="1124910119#0" fromLane="0" toLane="0"/>

    <connection from="-1124910119#1" to="-1124910119#0" fromLane="0" toLane="0"/>
    <connection from="-1124910119#1" to="1124910119#1" fromLane="0" toLane="0"/>

    <connection from="-1127602092#0" to="-1233798019#0" fromLane="0" toLane="0"/>
    <connection from="-1127602092#0" to="-1426727707#0" fromLane="0" toLane="0"/>
    <connection from="-1127602092#0" to="4611713#1" fromLane="0" toLane="0"/>
    <connection from="-1127602092#0" to="1426727707#3" fromLane="0" toLane="0"/>

    <connection from="-1127602092#1" to="-1127602092#0" fromLane="0" toLane="0"/>
    <connection from="-1127602092#1" to="-147066248#9" fromLane="0" toLane="0"/>
    <connection from="-1127602092#1" to="1127602092#1" fromLane="0" toLane="0"/>

    <connection from="-1127602336#1" to="-1159149106#0" fromLane="0" toLane="0"/>
    <connection from="-1127602336#1" to="-66071366#4" fromLane="0" toLane="0"/>
    <connection from="-1127602336#1" to="1126241276#1" fromLane="0" toLane="0"/>
    <connection from="-1127602336#1" to="1127602336#1" fromLane="0" toLane="0"/>

    <connection from="-1132162834#0" to="196850607#0" fromLane="0" toLane="0"/>
    <connection from="-1132162834#0" to="-840229275#0" fromLane="0" toLane="0"/>
    <connection from="-1132162834#0" to="1424634881#1" fromLane="0" toLane="0"/>
    <connection from="-1132162834#0" to="840229275#3" fromLane="0" toLane="0"/>

    <connection from="-1132164863" to="-1132164893#0" fromLane="0" toLane="0"/>

    <connection from="-1132164893#0" to="-1426079060#0" fromLane="0" toLane="0"/>
    <connection from="-1132164893#0" to="949362584" fromLane="0" toLane="0"/>

    <connection from="-1132167289#1" to="1132167289#0" fromLane="0" toLane="0"/>

    <connection from="-1136657259#0" to="-375935041#1" fromLane="0" toLane="0" keepClear="0"/>
    <connection from="-1136657259#0" to="4588222" fromLane="0" toLane="0"/>

    <connection from="-1136657266" to="199847247#0" fromLane="0" toLane="0"/>
    <connection from="-1136657266" to="-665241888#0" fromLane="0" toLane="0"/>
    <connection from="-1136657266" to="-1424668407#0" fromLane="0" toLane="0"/>
    <connection from="-1136657266" to="665241888#3" fromLane="0" toLane="0"/>

    <connection from="-1149365726#0" to="1149365726#0" fromLane="0" toLane="0"/>

    <connection from="-1149365726#1" to="-1149365726#0" fromLane="0" toLane="0"/>
    <connection from="-1149365726#1" to="1149365726#1" fromLane="0" toLane="0"/>

    <connection from="-1151333056" to="4611710#0" fromLane="0" toLane="0"/>

    <connection from="-1151333057#1" to="89901345#1" fromLane="0" toLane="0"/>
    <connection from="-1151333057#1" to="-1151333058#1" fromLane="0" toLane="0"/>
    <connection from="-1151333057#1" to="-1228777608#1" fromLane="0" toLane="0"/>

    <connection from="-1151333058#0" to="1426120125#3" fromLane="0" toLane="0"/>
    <connection from="-1151333058#0" to="-43376693#5" fromLane="0" toLane="0"/>
    <connection from="-1151333058#0" to="-1426120125#0" fromLane="0" toLane="0"/>
    <connection from="-1151333058#0" to="1151333058#0" fromLane="0" toLane="0"/>

    <connection from="-1151333058#1" to="-1151333058#0" fromLane="0" toLane="0"/>

    <connection from="-1159149106#0" to="1159149106#0" fromLane="0" toLane="0"/>

    <connection from="-1163350372#0" to="-15973619#1" fromLane="0" toLane="0"/>
    <connection from="-1163350372#0" to="-24509317#2" fromLane="0" toLane="0"/>
    <connection from="-1163350372#0" to="389101391" fromLane="0" toLane="0"/>
    <connection from="-1163350372#0" to="1163350372#0" fromLane="0" toLane="0"/>

    <connection from="-1163350372#1" to="-1163350372#0" fromLane="0" toLane="0"/>
    <connection from="-1163350372#1" to="1163350372#1" fromLane="0" toLane="0"/>

    <connection from="-1163350372#2" to="-1163350372#1" fromLane="0" toLane="0"/>
    <connection from="-1163350372#2" to="1163350372#2" fromLane="0" toLane="0"/>

    <connection from="-1171262820#0" to="1171262820#0" fromLane="0" toLane="0"/>

    <connection from="-1171262820#1" to="-1171262820#0" fromLane="0" toLane="0"/>
    <connection from="-1171262820#1" to="1171262820#1" fromLane="0" toLane="0"/>

    <connection from="-1171262821#0" to="1171262821#0" fromLane="0" toLane="0"/>

    <connection from="-1171262821#1" to="-1171262821#0" fromLane="0" toLane="0"/>
    <connection from="-1171262821#1" to="1171262821#1" fromLane="0" toLane="0"/>

    <connection from="-1171262822#0" to="1171262822#0" fromLane="0" toLane="0"/>

    <connection from="-1171262822#1" to="-1171262822#0" fromLane="0" toLane="0"/>
    <connection from="-1171262822#1" to="1171262822#1" fromLane="0" toLane="0"/>

    <connection from="-1178379945#0" to="-734578686" fromLane="0" toLane="0"/>
    <connection from="-1178379945#0" to="1233790389" fromLane="0" toLane="0"/>
    <connection from="-1178379945#0" to="1178379945#0" fromLane="0" toLane="0"/>

    <connection from="-1178379945#1" to="-1178379945#0" fromLane="0" toLane="0"/>
    <connection from="-1178379945#1" to="1178379945#1" fromLane="0" toLane="0"/>

    <connection from="-1178379945#2" to="-1178379945#1" fromLane="0" toLane="0"/>
    <connection from="-1178379945#2" to="1178379945#2" fromLane="0" toLane="0"/>

    <connection from="-1187575246" to="1073015934" fromLane="0" toLane="0"/>
    <connection from="-1187575246" to="1187575246" fromLane="0" toLane="0"/>

    <connection from="-1187575247#0" to="1187575247#0" fromLane="0" toLane="0"/>

    <connection from="-1187575247#1" to="-1187575247#0" fromLane="0" toLane="0"/>
    <connection from="-1187575247#1" to="1187575247#1" fromLane="0" toLane="0"/>

    <connection from="-1187575252#0" to="1187575252#0" fromLane="0" toLane="0"/>

    <connection from="-1187575252#1" to="-1187575252#0" fromLane="0" toLane="0"/>
    <connection from="-1187575252#1" to="1187575252#1" fromLane="0" toLane="0"/>

    <connection from="-1190781962#0" to="812557615#0" fromLane="0" toLane="0" keepClear="0"/>
    <connection from="-1190781962#0" to="292429056" fromLane="0" toLane="0"/>

    <connection from="-1190781965" to="1190781963#1" fromLane="0" toLane="0"/>
    <connection from="-1190781965" to="196850609#0" fromLane="0" toLane="0"/>
    <connection from="-1190781965" to="-1190781962#0" fromLane="0" toLane="0"/>
    <connection from="-1190781965" to="42102542#1" fromLane="0" toLane="0"/>

    <connection from="-1195383150#2" to="-1163350372#2" fromLane="0" toLane="0"/>
    <connection from="-1195383150#2" to="-24509318#1" fromLane="0" toLane="0"/>
    <connection from="-1195383150#2" to="-1424068492#0" fromLane="0" toLane="0"/>
    <connection from="-1195383150#2" to="1195383150#1" fromLane="0" toLane="0"/>

    <connection from="-1197290650#0" to="1197290650#0" fromLane="0" toLane="0"/>

    <connection from="-1211979595" to="1211979595" fromLane="0" toLane="0"/>

    <connection from="-1228777606#0" to="1228777606#0" fromLane="0" toLane="0"/>

    <connection from="-1228777607#0" to="1228777607#0" fromLane="0" toLane="0"/>

    <connection from="-1228777608#0" to="1228777608#0" fromLane="0" toLane="0"/>

    <connection from="-1228777608#1" to="-1228777608#0" fromLane="0" toLane="0"/>
    <connection from="-1228777608#1" to="1228777608#1" fromLane="0" toLane="0"/>

    <connection from="-1228777609#0" to="1228777609#0" fromLane="0" toLane="0"/>

    <connection from="-1228777609#1" to="-1228777609#0" fromLane="0" toLane="0"/>
    <connection from="-1228777609#1" to="1228777609#1" fromLane="0" toLane="0"/>

    <connection from="-1233790389" to="1178379945#0" fromLane="0" toLane="0"/>
    <connection from="-1233790389" to="-734578686" fromLane="0" toLane="0"/>

    <connection from="-1233798019#0" to="1127602336#1" fromLane="0" toLane="0"/>
    <connection from="-1233798019#0" to="-1159149106#0" fromLane="0" toLane="0"/>
    <connection from="-1233798019#0" to="-66071366#4" fromLane="0" toLane="0"/>
    <connection from="-1233798019#0" to="1126241276#1" fromLane="0" toLane="0"/>

    <connection from="-1249342904#0" to="389101374#0" fromLane="0" toLane="0"/>
    <connection from="-1249342904#0" to="1249342904#0" fromLane="0" toLane="0"/>

    <connection from="-1249342904#1" to="-1249342904#0" fromLane="0" toLane="0"/>

    <connection from="-1301030066#0" to="1301030066#0" fromLane="0" toLane="0"/>

    <connection from="-1307864983" to="-1307864984#0" fromLane="0" toLane="0"/>
    <connection from="-1307864983" to="1307864984#1" fromLane="0" toLane="0"/>

    <connection from="-1307864984#0" to="1418921820#3" fromLane="0" toLane="0"/>
    <connection from="-1307864984#0" to="-1301030066#0" fromLane="0" toLane="0"/>
    <connection from="-1307864984#0" to="1151326817#1" fromLane="0" toLane="0"/>
    <connection from="-1307864984#0" to="1307864982#1" fromLane="0" toLane="0"/>

    <connection from="-1387909223" to="315255114" fromLane="0" toLane="0"/>

    <connection from="-1388649493#1" to="1238797610#3" fromLane="0" toLane="0"/>
    <connection from="-1388649493#1" to="1388649493#1" fromLane="0" toLane="0"/>

    <connection from="-1420810367#0" to="1420810367#0" fromLane="0" toLane="0"/>

    <connection from="-1420810367#1" to="-1420810367#0" fromLane="0" toLane="0"/>
    <connection from="-1420810367#1" to="1420810367#1" fromLane="0" toLane="0"/>

    <connection from="-1420810368#0" to="1420810368#0" fromLane="0" toLane="0"/>

    <connection from="-1420810368#1" to="-1420810368#0" fromLane="0" toLane="0"/>
    <connection from="-1420810368#1" to="1420810368#1" fromLane="0" toLane="0"/>

    <connection from="-1421427239#0" to="-182623931" fromLane="0" toLane="0"/>

    <connection from="-1423958086#0" to="-546927052" fromLane="0" toLane="0"/>
    <connection from="-1423958086#0" to="-1127602336#1" fromLane="0" toLane="0"/>

    <connection from="-1423958087" to="-1423958086#0" fromLane="0" toLane="0"/>
    <connection from="-1423958087" to="-1423958088#0" fromLane="0" toLane="0"/>
    <connection from="-1423958087" to="1423958087" fromLane="0" toLane="0"/>

    <connection from="-1423958088#0" to="-1127602092#1" fromLane="0" toLane="0"/>
    <connection from="-1423958088#0" to="831860724#0" fromLane="0" toLane="0"/>
    <connection from="-1423958088#0" to="-831860726" fromLane="0" toLane="0"/>
    <connection from="-1423958088#0" to="831860725" fromLane="0" toLane="0"/>

    <connection from="-1424068492#0" to="1424068492#0" fromLane="0" toLane="0"/>

    <connection from="-1424634880#0" to="840229275#3" fromLane="0" toLane="0"/>
    <connection from="-1424634880#0" to="196850607#0" fromLane="0" toLane="0"/>
    <connection from="-1424634880#0" to="-840229275#0" fromLane="0" toLane="0"/>
    <connection from="-1424634880#0" to="1424634881#1" fromLane="0" toLane="0"/>

    <connection from="-1424634884#0" to="1136657259#3" fromLane="0" toLane="0"/>
    <connection from="-1424634884#0" to="-1424634880#0" fromLane="0" toLane="0"/>
    <connection from="-1424634884#0" to="-1136657259#0" fromLane="0" toLane="0"/>
    <connection from="-1424634884#0" to="1424634880#3" fromLane="0" toLane="0"/>

    <connection from="-1424668407#0" to="1136657264#3" fromLane="0" toLane="0"/>
    <connection from="-1424668407#0" to="-1424634884#0" fromLane="0" toLane="0"/>
    <connection from="-1424668407#0" to="47707170#3" fromLane="0" toLane="0"/>
    <connection from="-1424668407#0" to="1424634884#4" fromLane="0" toLane="0"/>

    <connection from="-1424675345#0" to="389101373#1" fromLane="0" toLane="0"/>
    <connection from="-1424675345#0" to="1424675345#0" fromLane="0" toLane="0"/>

    <connection from="-1426079060#0" to="1426079060#0" fromLane="0" toLane="0"/>

    <connection from="-1426120123#0" to="-147029846#1" fromLane="0" toLane="0"/>
    <connection from="-1426120123#0" to="-375311158#0" fromLane="0" toLane="0"/>

    <connection from="-1426120125#0" to="-1105574289#1" fromLane="0" toLane="0"/>
    <connection from="-1426120125#0" to="-105747086#1" fromLane="0" toLane="0"/>

    <connection from="-1426120125#3" to="-43376693#5" fromLane="0" toLane="0"/>
    <connection from="-1426120125#3" to="-1426120125#0" fromLane="0" toLane="0"/>
    <connection from="-1426120125#3" to="1151333058#0" fromLane="0" toLane="0"/>
    <connection from="-1426120125#3" to="1426120125#3" fromLane="0" toLane="0"/>

    <connection from="-1426216315#0" to="-1249342904#1" fromLane="0" toLane="0"/>
    <connection from="-1426216315#0" to="104428005#0" fromLane="0" toLane="0"/>

    <connection from="-1426216316#0" to="-35557161#3" fromLane="0" toLane="0"/>
    <connection from="-1426216316#0" to="-1426216315#0" fromLane="0" toLane="0"/>
    <connection from="-1426216316#0" to="1105574289#1" fromLane="0" toLane="0"/>
    <connection from="-1426216316#0" to="1426216315#3" fromLane="0" toLane="0"/>

    <connection from="-1426268094#0" to="1426268093" fromLane="0" toLane="0"/>

    <connection from="-1426723954#0" to="1426723954#0" fromLane="0" toLane="0"/>

    <connection from="-1426723954#1" to="-1426723954#0" fromLane="0" toLane="0"/>
    <connection from="-1426723954#1" to="1426723954#1" fromLane="0" toLane="0"/>

    <connection from="-1426727707#0" to="-1426723954#1" fromLane="0" toLane="0"/>
    <connection from="-1426727707#0" to="-4611708#3" fromLane="0" toLane="0"/>

    <connection from="-1426727709#0" to="4611708#3" fromLane="0" toLane="0"/>
    <connection from="-1426727709#0" to="-4611708#2" fromLane="0" toLane="0"/>
    <connection from="-1426727709#0" to="1426727709#0" fromLane="0" toLane="0"/>

    <connection from="-1426727709#1" to="-1426727709#0" fromLane="0" toLane="0"/>
    <connection from="-1426727709#1" to="1426727709#1" fromLane="0" toLane="0"/>

    <connection from="-1426897598#0" to="-35557143#2" fromLane="0" toLane="0"/>
    <connection from="-1426897598#0" to="-1171262822#1" fromLane="0" toLane="0"/>

    <connection from="-1426897602#0" to="243854725#1" fromLane="0" toLane="0"/>
    <connection from="-1426897602#0" to="-1426897598#0" fromLane="0" toLane="0"/>
    <connection from="-1426897602#0" to="22972473#1" fromLane="0" toLane="0"/>
    <connection from="-1426897602#0" to="1426897598#3" fromLane="0" toLane="0"/>

    <connection from="-1426897603#0" to="1426897603#0" fromLane="0" toLane="0"/>

    <connection from="-1426897603#3" to="1426897601#1" fromLane="0" toLane="0"/>
    <connection from="-1426897603#3" to="-1426897603#0" fromLane="0" toLane="0"/>
    <connection from="-1426897603#3" to="-1426897602#0" fromLane="0" toLane="0"/>
    <connection from="-1426897603#3" to="1426897603#3" fromLane="0" toLane="0"/>

    <connection from="-147029844#0" to="4611716#1" fromLane="0" toLane="0"/>
    <connection from="-147029844#0" to="-4611716#0" fromLane="0" toLane="0"/>

    <connection from="-147029845#0" to="147029845#0" fromLane="0" toLane="0"/>

    <connection from="-147029846#0" to="147029847" fromLane="0" toLane="0"/>

    <connection from="-147029846#1" to="-147029846#0" fromLane="0" toLane="0"/>
    <connection from="-147029846#1" to="147029846#1" fromLane="0" toLane="0"/>

    <connection from="-147066248#1" to="4611718#2" fromLane="0" toLane="0"/>
    <connection from="-147066248#1" to="-4611718#1" fromLane="0" toLane="0"/>
    <connection from="-147066248#1" to="147066248#1" fromLane="0" toLane="0"/>

    <connection from="-147066248#2" to="-147066248#1" fromLane="0" toLane="0"/>

    <connection from="-147066248#3" to="-147066248#2" fromLane="0" toLane="0"/>

    <connection from="-147066248#4" to="-147066248#3" fromLane="0" toLane="0"/>

    <connection from="-147066248#5" to="-147066248#4" fromLane="0" toLane="0"/>

    <connection from="-147066248#6" to="-147066248#5" fromLane="0" toLane="0"/>

    <connection from="-147066248#7" to="-147066248#6" fromLane="0" toLane="0"/>

    <connection from="-147066248#8" to="-147066248#7" fromLane="0" toLane="0"/>

    <connection from="-147066248#9" to="-147066248#8" fromLane="0" toLane="0"/>

    <connection from="-147067944" to="-4611716#1" fromLane="0" toLane="0"/>
    <connection from="-147067944" to="4611716#2" fromLane="0" toLane="0"/>

    <connection from="-148097316" to="148097316" fromLane="0" toLane="0"/>

    <connection from="-15973619#0" to="-1233790389" fromLane="0" toLane="0"/>

    <connection from="-15973619#1" to="-15973619#0" fromLane="0" toLane="0"/>
    <connection from="-15973619#1" to="4611718#1" fromLane="0" toLane="0"/>
    <connection from="-15973619#1" to="15973619#1" fromLane="0" toLane="0"/>

    <connection from="-182623931" to="182623931" fromLane="0" toLane="0"/>

    <connection from="-199847347#0" to="199847347#0" fromLane="0" toLane="0" speed="0.10"/>

    <connection from="-199847347#1" to="-199847347#0" fromLane="0" toLane="0"/>

    <connection from="-199847347#2" to="-199847347#1" fromLane="0" toLane="0" uncontrolled="1"/>

    <connection from="-22035476" to="22035476" fromLane="0" toLane="0"/>

    <connection from="-22701813#0" to="541763977#1" fromLane="0" toLane="0"/>
    <connection from="-22701813#0" to="22701813#0" fromLane="0" toLane="0"/>

    <connection from="-22701813#1" to="-22701813#0" fromLane="0" toLane="0"/>
    <connection from="-22701813#1" to="22701813#1" fromLane="0" toLane="0"/>

    <connection from="-23017852#1" to="-23017853#2" fromLane="0" toLane="0"/>
    <connection from="-23017852#1" to="-1151333056" fromLane="0" toLane="0"/>
    <connection from="-23017852#1" to="23017852#1" fromLane="0" toLane="0"/>

    <connection from="-23017852#2" to="-23017852#1" fromLane="0" toLane="0"/>
    <connection from="-23017852#2" to="36997008#0" fromLane="0" toLane="0"/>

    <connection from="-23017852#3" to="-23017852#2" fromLane="0" toLane="0"/>

    <connection from="-23017852#4" to="-23017852#3" fromLane="0" toLane="0"/>

    <connection from="-23017853#0" to="-4611711#2" fromLane="0" toLane="0"/>
    <connection from="-23017853#0" to="23017853#0" fromLane="0" toLane="0"/>

    <connection from="-23017853#1" to="-23017853#0" fromLane="0" toLane="0"/>

    <connection from="-23017853#2" to="-23017853#1" fromLane="0" toLane="0"/>
    <connection from="-23017853#2" to="-1426268094#0" fromLane="0" toLane="0"/>

    <connection from="-236868322#0" to="-389101384#0" fromLane="0" toLane="0"/>
    <connection from="-236868322#0" to="389101384#1" fromLane="0" toLane="0"/>

    <connection from="-24509317#1" to="-4611714#1" fromLane="0" toLane="0"/>
    <connection from="-24509317#1" to="4611714#4" fromLane="0" toLane="0"/>
    <connection from="-24509317#1" to="24509317#1" fromLane="0" toLane="0"/>

    <connection from="-24509317#2" to="-24509317#1" fromLane="0" toLane="0"/>

    <connection from="-24509318#1" to="-4611714#5" fromLane="0" toLane="0"/>
    <connection from="-24509318#1" to="1009114665#0" fromLane="0" toLane="0"/>
    <connection from="-24509318#1" to="24509318#1" fromLane="0" toLane="0"/>

    <connection from="-24997595#0" to="-1424675345#0" fromLane="0" toLane="0"/>

    <connection from="-24997595#1" to="803471183#0" fromLane="0" toLane="0"/>
    <connection from="-24997595#1" to="-24997595#0" fromLane="0" toLane="0"/>

    <connection from="-25945760#0" to="375311154#1" fromLane="0" toLane="0"/>
    <connection from="-25945760#0" to="25945760#0" fromLane="0" toLane="0"/>

    <connection from="-25945760#1" to="-25945760#0" fromLane="0" toLane="0"/>

    <connection from="-295255792#0" to="295255792#0" fromLane="0" toLane="0" speed="0.10"/>

    <connection from="-295255792#1" to="-295255792#0" fromLane="0" toLane="0"/>

    <connection from="-327462543#1" to="-1132164863" fromLane="0" toLane="0"/>
    <connection from="-327462543#1" to="-1132164863" fromLane="1" toLane="1"/>

    <connection from="-339201247#0" to="1421185260#1" fromLane="0" toLane="0"/>
    <connection from="-339201247#0" to="339201247#0" fromLane="0" toLane="0"/>

    <connection from="-339201247#1" to="-339201247#0" fromLane="0" toLane="0"/>
    <connection from="-339201247#1" to="339201247#1" fromLane="0" toLane="0"/>

    <connection from="-339201247#2" to="-22701813#1" fromLane="0" toLane="0"/>
    <connection from="-339201247#2" to="-339201247#1" fromLane="0" toLane="0"/>
    <connection from="-339201247#2" to="339201247#2" fromLane="0" toLane="0"/>

    <connection from="-35557143#0" to="196850609#0" fromLane="0" toLane="0"/>
    <connection from="-35557143#0" to="-1190781962#0" fromLane="0" toLane="0"/>
    <connection from="-35557143#0" to="42102542#1" fromLane="0" toLane="0"/>
    <connection from="-35557143#0" to="1190781963#1" fromLane="0" toLane="0"/>

    <connection from="-35557143#2" to="-1171262820#1" fromLane="0" toLane="0"/>
    <connection from="-35557143#2" to="-35557143#0" fromLane="0" toLane="0"/>
    <connection from="-35557143#2" to="-1171262821#1" fromLane="0" toLane="0"/>

    <connection from="-35557161#0" to="-1426897603#3" fromLane="0" toLane="0"/>

    <connection from="-35557161#1" to="-35557161#0" fromLane="0" toLane="0"/>

    <connection from="-35557161#2" to="4611708#1" fromLane="0" toLane="0"/>
    <connection from="-35557161#2" to="-35557161#1" fromLane="0" toLane="0"/>
    <connection from="-35557161#2" to="35557161#2" fromLane="0" toLane="0"/>

    <connection from="-35557161#3" to="-4611710#0" fromLane="0" toLane="0"/>
    <connection from="-35557161#3" to="-35557161#2" fromLane="0" toLane="0"/>
    <connection from="-35557161#3" to="35557161#3" fromLane="0" toLane="0"/>

    <connection from="-375311153#0" to="-147029844#0" fromLane="0" toLane="0"/>
    <connection from="-375311153#0" to="-4611712#3" fromLane="0" toLane="0"/>
    <connection from="-375311153#0" to="43376693#1" fromLane="0" toLane="0"/>
    <connection from="-375311153#0" to="375311153#0" fromLane="0" toLane="0"/>

    <connection from="-375311153#1" to="-375311153#0" fromLane="0" toLane="0"/>

    <connection from="-375311155#1" to="-67099789#2" fromLane="0" toLane="0"/>
    <connection from="-375311155#1" to="-67099789#2" fromLane="1" toLane="1"/>
    <connection from="-375311155#1" to="-67099789#2" fromLane="1" toLane="2"/>

    <connection from="-375311158#0" to="-1426120125#3" fromLane="0" toLane="0"/>

    <connection from="-375459783#0" to="-1073015940#0" fromLane="0" toLane="0"/>
    <connection from="-375459783#0" to="1424668410#3" fromLane="0" toLane="0"/>
    <connection from="-375459783#0" to="1073015940#3" fromLane="0" toLane="0"/>

    <connection from="-375935041#0" to="-375935042#0" fromLane="0" toLane="0"/>
    <connection from="-375935041#0" to="375935042#1" fromLane="0" toLane="0"/>

    <connection from="-375935041#1" to="-375935041#0" fromLane="0" toLane="0"/>
    <connection from="-375935041#1" to="375935041#1" fromLane="0" toLane="0"/>

    <connection from="-375935042#0" to="4588219#0" fromLane="0" toLane="0" keepClear="0"/>
    <connection from="-375935042#0" to="375935042#0" fromLane="0" toLane="0"/>

    <connection from="-389101384#0" to="-47755711#0" fromLane="0" toLane="0"/>
    <connection from="-389101384#0" to="47755711#1" fromLane="0" toLane="0"/>
    <connection from="-389101384#0" to="389101384#0" fromLane="0" toLane="0"/>

    <connection from="-389101385" to="831860726" fromLane="0" toLane="0"/>
    <connection from="-389101385" to="-43346200" fromLane="0" toLane="0"/>
    <connection from="-389101385" to="389101385" fromLane="0" toLane="0"/>

    <connection from="-389101388#0" to="-236868322#0" fromLane="0" toLane="0"/>
    <connection from="-389101388#0" to="236868322#1" fromLane="0" toLane="0"/>

    <connection from="-389101388#1" to="-389101388#0" fromLane="0" toLane="0"/>
    <connection from="-389101388#1" to="389101388#1" fromLane="0" toLane="0"/>

    <connection from="-389101391" to="1163350372#0" fromLane="0" toLane="0"/>
    <connection from="-389101391" to="-15973619#1" fromLane="0" toLane="0"/>
    <connection from="-389101391" to="-24509317#2" fromLane="0" toLane="0"/>
    <connection from="-389101391" to="389101391" fromLane="0" toLane="0"/>

    <connection from="-409506038#0" to="409506038#0" fromLane="0" toLane="0"/>

    <connection from="-409506038#1" to="-409506038#0" fromLane="0" toLane="0"/>
    <connection from="-409506038#1" to="409506038#1" fromLane="0" toLane="0"/>

    <connection from="-409507435#0" to="-409507435#1" fromLane="0" toLane="0"/>
    <connection from="-409507435#0" to="409507435#2" fromLane="0" toLane="0"/>

    <connection from="-409507435#1" to="-409507435#0" fromLane="0" toLane="0"/>
    <connection from="-409507435#1" to="-409506038#1" fromLane="0" toLane="0"/>
    <connection from="-409507435#1" to="409507435#1" fromLane="0" toLane="0"/>

    <connection from="-43346200" to="734578686" fromLane="0" toLane="0"/>
    <connection from="-43346200" to="43346200" fromLane="0" toLane="0"/>

    <connection from="-43376693#1" to="375311153#0" fromLane="0" toLane="0"/>
    <connection from="-43376693#1" to="-147029844#0" fromLane="0" toLane="0"/>
    <connection from="-43376693#1" to="-4611712#3" fromLane="0" toLane="0"/>
    <connection from="-43376693#1" to="43376693#1" fromLane="0" toLane="0"/>

    <connection from="-43376693#2" to="-43376693#1" fromLane="0" toLane="0"/>

    <connection from="-43376693#3" to="-43376693#2" fromLane="0" toLane="0"/>
    <connection from="-43376693#3" to="-1228777606#0" fromLane="0" toLane="0"/>

    <connection from="-43376693#4" to="147029850#0" fromLane="0" toLane="0"/>
    <connection from="-43376693#4" to="-43376693#3" fromLane="0" toLane="0"/>

    <connection from="-43376693#5" to="-43376693#4" fromLane="0" toLane="0"/>
    <connection from="-43376693#5" to="-1228777607#0" fromLane="0" toLane="0"/>

    <connection from="-4588219#0" to="375935042#0" fromLane="0" toLane="0" keepClear="0"/>
    <connection from="-4588219#0" to="4588219#0" fromLane="0" toLane="0"/>

    <connection from="-4610608" to="4610608" fromLane="0" toLane="0"/>

    <connection from="-4610609#0" to="-4610608" fromLane="0" toLane="0"/>
    <connection from="-4610609#0" to="1102369943" fromLane="0" toLane="0"/>

    <connection from="-4610609#1" to="-4610609#0" fromLane="0" toLane="0"/>
    <connection from="-4610609#1" to="4610609#1" fromLane="0" toLane="0"/>

    <connection from="-4611708#1" to="-35557161#1" fromLane="0" toLane="0"/>
    <connection from="-4611708#1" to="35557161#2" fromLane="0" toLane="0"/>
    <connection from="-4611708#1" to="4611708#1" fromLane="0" toLane="0"/>

    <connection from="-4611708#2" to="899946804#0" fromLane="0" toLane="0"/>
    <connection from="-4611708#2" to="-4611708#1" fromLane="0" toLane="0"/>

    <connection from="-4611708#3" to="-4611708#2" fromLane="0" toLane="0"/>
    <connection from="-4611708#3" to="1426727709#0" fromLane="0" toLane="0"/>

    <connection from="-4611710#0" to="1151333056" fromLane="0" toLane="0"/>

    <connection from="-4611711#0" to="-23017852#4" fromLane="0" toLane="0"/>
    <connection from="-4611711#0" to="-1426216316#0" fromLane="0" toLane="0"/>
    <connection from="-4611711#0" to="4611712#1" fromLane="0" toLane="0"/>