<?xml version="1.0" encoding="UTF-8"?>

<!-- generated on 2025-11-08 21:21:28.931724 by osmWebWizard.py UNKNOWN
<configuration>
    <net-file value="/Users/sohamghadge/Sumo/2025-11-08-21-20-42/osm.net.xml.gz"/>
    <output-trip-file value="/Users/sohamghadge/Sumo/2025-11-08-21-20-42/osm.passenger.trips.xml"/>
    <route-file value="/Users/sohamghadge/Sumo/2025-11-08-21-20-42/osm.passenger.rou.xml"/>
    <prefix value="veh"/>
    <trip-attributes value="departLane=&quot;best&quot;"/>
    <fringe-start-attributes value="departSpeed=&quot;max&quot;"/>
    <vehicle-class value="passenger"/>
    <lanes value="True"/>
    <fringe-factor value="5"/>
    <allow-fringe.min-length value="1000.0"/>
    <edge-permission value="passenger"/>
    <via-edge-types value="highway.motorway,highway.motorway_link,highway.trunk_link,highway.primary_link,highway.secondary_link,highway.tertiary_link"/>
    <min-distance value="300.0"/>
    <min-distance.fringe value="10.0"/>
    <remove-loops value="True"/>
    <insertion-density value="20.0"/>
</configuration>
-->

<routes xmlns:xsi="http://www.w3.org/2001/XMLSchema-instance" xsi:noNamespaceSchemaLocation="http://sumo.dlr.de/xsd/routes_file.xsd">
    <vType id="veh_passenger" vClass="passenger"/>
    <trip id="veh0" depart="0.00" from="196850607#2" to="-1132164893#0" departLane="best" type="veh_passenger"/>
    <trip id="veh1" depart="13.51" from="4611712#3" to="-1424668407#0" departLane="best" type="veh_passenger"/>
    <trip id="veh2" depart="27.02" from="120359703" to="-1132167289#1" departLane="best" type="veh_passenger" departSpeed="max"/>
    <trip id="veh3" depart="40.52" from="-4611708#1" to="1418921820#3" departLane="best" type="veh_passenger"/>
    <trip id="veh4" depart="54.03" from="375312063#2" to="243854725#1" departLane="best" type="veh_passenger"/>
    <trip id="veh5" depart="67.54" from="1123184404#1" to="-182623931" departLane="best" type="veh_passenger"/>
    <trip id="veh6" depart="81.05" from="67099789#1" to="1040940511" departLane="best" type="veh_passenger"/>
    <trip id="veh7" depart="94.55" from="-1426120123#0" to="-1426079060#0" departLane="best" type="veh_passenger"/>
    <trip id="veh8" depart="108.06" from="1426120125#3" to="66071366#2" departLane="best" type="veh_passenger"/>
    <trip id="veh9" depart="121.57" from="42747981#1" to="168515533#4" departLane="best" type="veh_passenger"/>
    <trip id="veh10" depart="135.08" from="25945760#0" to="-1151333058#0" departLane="best" type="veh_passenger"/>
    <trip id="veh11" depart="148.59" from="-4611711#0" to="-66071366#1" departLane="best" type="veh_passenger"/>
    <trip id="veh12" depart="162.09" from="-1423958087" to="-43376693#4" departLane="best" type="veh_passenger" departSpeed="max"/>
    <trip id="veh13" depart="175.60" from="196850607#0" to="1040940511" departLane="best" type="veh_passenger"/>
    <trip id="veh14" depart="189.11" from="-25945760#1" to="1073015940#3" departLane="best" type="veh_passenger" departSpeed="max"/>
    <trip id="veh15" depart="202.62" from="831860725" to="196850608#2" departLane="best" type="veh_passenger"/>
    <trip id="veh16" depart="216.12" from="1426897603#0" to="23017853#0" departLane="best" type="veh_passenger" departSpeed="max"/>
    <trip id="veh17" depart="229.63" from="43376693#1" to="375311155#0" departLane="best" type="veh_passenger"/>
    <trip id="veh18" depart="243.14" from="-4611711#0" to="-1132167289#1" departLane="best" type="veh_passenger"/>
    <trip id="veh19" depart="256.65" from="110785555#1" to="-4611712#3" departLane="best" type="veh_passenger"/>
    <trip id="veh20" depart="270.15" from="-43376693#3" to="47707171#1" departLane="best" type="veh_passenger"/>
    <trip id="veh21" depart="283.66" from="4611708#3" to="-81113584#1" departLane="best" type="veh_passenger"/>
    <trip id="veh22" depart="297.17" from="16374191#1" to="4611711#2" departLane="best" type="veh_passenger"/>
    <trip id="veh23" depart="310.68" from="840229277#1" to="1421185260#1" departLane="best" type="veh_passenger"/>
    <trip id="veh24" depart="324.19" from="840229277#1" to="1421185267#3" departLane="best" type="veh_passenger"/>
    <trip id="veh25" depart="337.69" from="81113584#0" to="42747981#3" departLane="best" type="veh_passenger" departSpeed="max"/>
    <trip id="veh26" depart="351.20" from="-1127602092#0" to="25945760#1" departLane="best" type="veh_passenger"/>
    <trip id="veh27" depart="364.71" from="-47755711#2" to="196850609#0" departLane="best" type="veh_passenger"/>
    <trip id="veh28" depart="378.22" from="-147066248#1" to="1149365724#1" departLane="best" type="veh_passenger"/>
    <trip id="veh29" depart="391.72" from="1228609316#1" to="4773029#1" departLane="best" type="veh_passenger"/>
    <trip id="veh30" depart="405.23" from="1421185267#0" to="-23017853#2" departLane="best" type="veh_passenger" departSpeed="max"/>
    <trip id="veh31" depart="418.74" from="4611722#0" to="43376693#3" departLane="best" type="veh_passenger"/>
    <trip id="veh32" depart="432.25" from="1009114665#0" to="196850608#2" departLane="best" type="veh_passenger"/>
    <trip id="veh33" depart="445.76" from="171423001#0" to="-15973619#1" departLane="best" type="veh_passenger" departSpeed="max"/>
    <trip id="veh34" depart="459.26" from="375311156#0" to="1423958087" departLane="best" type="veh_passenger"/>
    <trip id="veh35" depart="472.77" from="375311157#0" to="1421185267#3" departLane="best" type="veh_passenger"/>
    <trip id="veh36" depart="486.28" from="-1009114665#0" to="-840229277#1" departLane="best" type="veh_passenger"/>
    <trip id="veh37" depart="499.79" from="4611708#4" to="375312063#2" departLane="best" type="veh_passenger"/>
    <trip id="veh38" depart="513.29" from="1073015940#3" to="-1159149106#0" departLane="best" type="veh_passenger"/>
    <trip id="veh39" depart="526.80" from="-1423958086#0" to="375311154#0" departLane="best" type="veh_passenger"/>
    <trip id="veh40" depart="540.31" from="375311156#0" to="-1426897603#0" departLane="best" type="veh_passenger"/>
    <trip id="veh41" depart="553.82" from="1252995263" to="1424634881#1" departLane="best" type="veh_passenger"/>
    <trip id="veh42" depart="567.32" from="-47755711#1" to="43376693#4" departLane="best" type="veh_passenger"/>
    <trip id="veh43" depart="580.83" from="120359703" to="-375311153#0" departLane="best" type="veh_passenger" departSpeed="max"/>
    <trip id="veh44" depart="594.34" from="1426216315#3" to="25945760#1" departLane="best" type="veh_passenger"/>
    <trip id="veh45" depart="607.85" from="1123184404#1" to="147066248#6" departLane="best" type="veh_passenger"/>
    <trip id="veh46" depart="621.36" from="-4611711#1" to="-375311158#0" departLane="best" type="veh_passenger"/>
    <trip id="veh47" depart="634.86" from="-1423958087" to="196850607#1" departLane="best" type="veh_passenger" departSpeed="max"/>
    <trip id="veh48" depart="648.37" from="-4611712#2" to="22972470#3" departLane="best" type="veh_passenger"/>
    <trip id="veh49" depart="661.88" from="-43376693#4" to="-147066248#1" departLane="best" type="veh_passenger"/>
    <trip id="veh50" depart="675.39" from="47755711#0" to="1426897598#3" departLane="best" type="veh_passenger"/>
    <trip id="veh51" depart="688.89" from="375311153#0" to="22972473#1" departLane="best" type="veh_passenger"/>
    <trip id="veh52" depart="702.40" from="1151333058#1" to="1040940511" departLane="best" type="veh_passenger"/>
    <trip id="veh53" depart="715.91" from="1421185267#0" to="-375311153#1" departLane="best" type="veh_passenger" departSpeed="max"/>
    <trip id="veh54" depart="729.42" from="1151333058#0" to="-1159149106#0" departLane="best" type="veh_passenger"/>
    <trip id="veh55" depart="742.93" from="-47755711#1" to="375311156#0" departLane="best" type="veh_passenger"/>
    <trip id="veh56" depart="756.43" from="1228609316#1" to="1136657259#3" departLane="best" type="veh_passenger"/>
    <trip id="veh57" depart="769.94" from="67099789#1" to="840229275#3" departLane="best" type="veh_passenger"/>
    <trip id="veh58" depart="783.45" from="1426897603#0" to="25945760#0" departLane="best" type="veh_passenger" departSpeed="max"/>
    <trip id="veh59" depart="796.96" from="-24509318#1" to="-665241888#0" departLane="best" type="veh_passenger"/>
    <trip id="veh60" depart="810.46" from="81113584#0" to="147066248#2" departLane="best" type="veh_passenger" departSpeed="max"/>
    <trip id="veh61" depart="823.97" from="-1423958088#0" to="-24509318#1" departLane="best" type="veh_passenger"/>
    <trip id="veh62" depart="837.48" from="-4611712#1" to="-1426897603#0" departLane="best" type="veh_passenger"/>
    <trip id="veh63" depart="850.99" from="1190781963#1" to="147066248#4" departLane="best" type="veh_passenger"/>
    <trip id="veh64" depart="864.49" from="-43346200" to="24997595#1" departLane="best" type="veh_passenger"/>
    <trip id="veh65" depart="878.00" from="23017852#1" to="-67099789#2" departLane="best" type="veh_passenger"/>
    <trip id="veh66" depart="891.51" from="110785555#1" to="375311153#0" departLane="best" type="veh_passenger"/>
    <trip id="veh67" depart="905.02" from="-1423958087" to="1195383150#1" departLane="best" type="veh_passenger" departSpeed="max"/>
    <trip id="veh68" depart="918.53" from="-1423958087" to="-375311153#1" departLane="best" type="veh_passenger" departSpeed="max"/>
    <trip id="veh69" depart="932.03" from="4611710#0" to="4588219#1" departLane="best" type="veh_passenger"/>
    <trip id="veh70" depart="945.54" from="1136657264#3" to="-182623931" departLane="best" type="veh_passenger"/>
    <trip id="veh71" depart="959.05" from="171423001#0" to="831860724#1" departLane="best" type="veh_passenger" departSpeed="max"/>
    <trip id="veh72" depart="972.56" from="-23017852#1" to="-1426897598#0" departLane="best" type="veh_passenger"/>
    <trip id="veh73" depart="986.06" from="-1426897602#0" to="1424668410#3" departLane="best" type="veh_passenger"/>
    <trip id="veh74" depart="999.57" from="-66071366#1" to="168514765#1" departLane="best" type="veh_passenger"/>
    <trip id="veh75" depart="1013.08" from="196850607#0" to="-4611712#1" departLane="best" type="veh_passenger"/>
    <trip id="veh76" depart="1026.59" from="1421185267#0" to="4611712#3" departLane="best" type="veh_passenger" departSpeed="max"/>
    <trip id="veh77" depart="1040.10" from="43376693#2" to="-1426079060#0" departLane="best" type="veh_passenger"/>
    <trip id="veh78" depart="1053.60" from="196850607#1" to="-4611711#2" departLane="best" type="veh_passenger"/>
    <trip id="veh79" depart="1067.11" from="375311154#1" to="1424634884#4" departLane="best" type="veh_passenger"/>
    <trip id="veh80" depart="1080.62" from="120359703" to="-1105574289#1" departLane="best" type="veh_passenger" departSpeed="max"/>
    <trip id="veh81" depart="1094.13" from="-1423958087" to="4611708#1" departLane="best" type="veh_passenger" departSpeed="max"/>
    <trip id="veh82" depart="1107.63" from="4611714#5" to="1423958087" departLane="best" type="veh_passenger"/>
    <trip id="veh83" depart="1121.14" from="-23017853#2" to="-1426897603#0" departLane="best" type="veh_passenger"/>
    <trip id="veh84" depart="1134.65" from="1073015940#3" to="4611711#2" departLane="best" type="veh_passenger"/>
    <trip id="veh85" depart="1148.16" from="375312063#0" to="42747981#3" departLane="best" type="veh_passenger"/>
    <trip id="veh86" depart="1161.67" from="-4611718#2" to="-1426120125#0" departLane="best" type="veh_passenger"/>
    <trip id="veh87" depart="1175.17" from="375311157#0" to="4611708#1" departLane="best" type="veh_passenger"/>
    <trip id="veh88" depart="1188.68" from="1159149106#0" to="168515533#4" departLane="best" type="veh_passenger" departSpeed="max"/>
    <trip id="veh89" depart="1202.19" from="375312063#2" to="43346200" departLane="best" type="veh_passenger"/>
    <trip id="veh90" depart="1215.70" from="375459783#1" to="-4611712#2" departLane="best" type="veh_passenger"/>
    <trip id="veh91" depart="1229.20" from="4611708#1" to="42747981#2" departLane="best" type="veh_passenger"/>
    <trip id="veh92" depart="1242.71" from="-4611708#2" to="375312063#0" departLane="best" type="veh_passenger"/>
    <trip id="veh93" depart="1256.22" from="1123184403" to="43346200" departLane="best" type="veh_passenger"/>
    <trip id="veh94" depart="1269.73" from="81113584#0" to="-4611718#2" departLane="best" type="veh_passenger" departSpeed="max"/>
    <trip id="veh95" depart="1283.23" from="196850608#0" to="1123184403" departLane="best" type="veh_passenger"/>
    <trip id="veh96" depart="1296.74" from="81113584#0" to="1423958087" departLane="best" type="veh_passenger" departSpeed="max"/>
    <trip id="veh97" depart="1310.25" from="47755711#1" to="-1426897598#0" departLane="best" type="veh_passenger"/>
    <trip id="veh98" depart="1323.76" from="81113584#0" to="-23017853#2" departLane="best" type="veh_passenger" departSpeed="max"/>
    <trip id="veh99" depart="1337.27" from="375311153#0" to="-81113584#1" departLane="best" type="veh_passenger"/>
    <trip id="veh100" depart="1350.77" from="-4773029#1" to="24509317#1" departLane="best" type="veh_passenger" departSpeed="max"/>
    <trip id="veh101" depart="1364.28" from="1426120129#1" to="25945760#0" departLane="best" type="veh_passenger"/>
    <trip id="veh102" depart="1377.79" from="375311154#1" to="22972470#4" departLane="best" type="veh_passenger"/>
    <trip id="veh103" depart="1391.30" from="1136657263#1" to="-1233798019#0" departLane="best" type="veh_passenger"/>
    <trip id="veh104" depart="1404.80" from="199847252#3" to="1009114665#2" departLane="best" type="veh_passenger"/>
    <trip id="veh105" depart="1418.31" from="110785555#1" to="42102542#1" departLane="best" type="veh_passenger"/>
    <trip id="veh106" depart="1431.82" from="35557161#0" to="-67099789#2" departLane="best" type="veh_passenger"/>
    <trip id="veh107" depart="1445.33" from="47755711#2" to="23017852#2" departLane="best" type="veh_passenger"/>
    <trip id="veh108" depart="1458.84" from="1009114665#2" to="1424634880#3" departLane="best" type="veh_passenger"/>
    <trip id="veh109" depart="1472.34" from="-1009114665#0" to="-47755711#2" departLane="best" type="veh_passenger"/>
    <trip id="veh110" depart="1485.85" from="120359703" to="147066248#2" departLane="best" type="veh_passenger" departSpeed="max"/>
    <trip id="veh111" depart="1499.36" from="199847247#1" to="1195383150#1" departLane="best" type="veh_passenger"/>
    <trip id="veh112" depart="1512.87" from="120359703" to="-375311153#1" departLane="best" type="veh_passenger" departSpeed="max"/>
    <trip id="veh113" depart="1526.37" from="-1424634884#0" to="1421185260#1" departLane="best" type="veh_passenger"/>
    <trip id="veh114" depart="1539.88" from="-375311155#1" to="-1132164893#0" departLane="best" type="veh_passenger"/>
    <trip id="veh115" depart="1553.39" from="-4611714#5" to="1233790389" departLane="best" type="veh_passenger"/>
    <trip id="veh116" depart="1566.90" from="1159149106#0" to="196850607#1" departLane="best" type="veh_passenger" departSpeed="max"/>
    <trip id="veh117" depart="1580.40" from="-375311153#1" to="23755950" departLane="best" type="veh_passenger"/>
    <trip id="veh118" depart="1593.91" from="199847247#2" to="-1009114665#2" departLane="best" type="veh_passenger"/>
    <trip id="veh119" depart="1607.42" from="-1426897602#0" to="1136657263#1" departLane="best" type="veh_passenger"/>
    <trip id="veh120" depart="1620.93" from="1424675345#0" to="-1159149106#0" departLane="best" type="veh_passenger"/>
    <trip id="veh121" depart="1634.44" from="-4611718#2" to="42102542#1" departLane="best" type="veh_passenger"/>
    <trip id="veh122" depart="1647.94" from="1228609316#1" to="375311157#0" departLane="best" type="veh_passenger"/>
    <trip id="veh123" depart="1661.45" from="22972470#4" to="831860724#1" departLane="best" type="veh_passenger"/>
    <trip id="veh124" depart="1674.96" from="168515533#2" to="4773029#1" departLane="best" type="veh_passenger"/>
    <trip id="veh125" depart="1688.47" from="35557161#0" to="1418921820#3" departLane="best" type="veh_passenger"/>
    <trip id="veh126" depart="1701.97" from="42747981#1" to="1424634880#3" departLane="best" type="veh_passenger"/>
    <trip id="veh127" depart="1715.48" from="-4611718#1" to="196850608#1" departLane="best" type="veh_passenger"/>
    <trip id="veh128" depart="1728.99" from="375311156#0" to="1421185260#1" departLane="best" type="veh_passenger"/>
    <trip id="veh129" depart="1742.50" from="-1423958087" to="-47755711#2" departLane="best" type="veh_passenger" departSpeed="max"/>
    <trip id="veh130" depart="1756.01" from="-66071366#1" to="-840229275#0" departLane="best" type="veh_passenger"/>
    <trip id="veh131" depart="1769.51" from="1426216315#3" to="-147066248#4" departLane="best" type="veh_passenger"/>
    <trip id="veh132" depart="1783.02" from="-4611711#1" to="233833576#0" departLane="best" type="veh_passenger"/>
    <trip id="veh133" depart="1796.53" from="1187575246" to="-35557161#2" departLane="best" type="veh_passenger"/>
    <trip id="veh134" depart="1810.04" from="120359703" to="4611712#3" departLane="best" type="veh_passenger" departSpeed="max"/>
    <trip id="veh135" depart="1823.54" from="4588219#1" to="375311154#1" departLane="best" type="veh_passenger"/>
    <trip id="veh136" depart="1837.05" from="1132167289#0" to="375311153#0" departLane="best" type="veh_passenger" departSpeed="max"/>
    <trip id="veh137" depart="1850.56" from="4588219#0" to="4773029#1" departLane="best" type="veh_passenger"/>
    <trip id="veh138" depart="1864.07" from="1190781963#1" to="35557161#2" departLane="best" type="veh_passenger"/>
    <trip id="veh139" depart="1877.57" from="1426897601#1" to="16374191#1" departLane="best" type="veh_passenger"/>
    <trip id="veh140" depart="1891.08" from="-4611708#1" to="-375311158#0" departLane="best" type="veh_passenger"/>
    <trip id="veh141" depart="1904.59" from="120359703" to="-1132167289#1" departLane="best" type="veh_passenger" departSpeed="max"/>
    <trip id="veh142" depart="1918.10" from="1238797610#4" to="-1426897603#0" departLane="best" type="veh_passenger"/>
    <trip id="veh143" depart="1931.61" from="171423001#2" to="-1132167289#1" departLane="best" type="veh_passenger"/>
    <trip id="veh144" depart="1945.11" from="1151333056" to="1426120129#1" departLane="best" type="veh_passenger"/>
    <trip id="veh145" depart="1958.62" from="-23017852#1" to="1195383150#1" departLane="best" type="veh_passenger"/>
    <trip id="veh146" depart="1972.13" from="-1195383150#2" to="1073015940#3" departLane="best" type="veh_passenger" departSpeed="max"/>
    <trip id="veh147" depart="1985.64" from="-43376693#3" to="1009114665#0" departLane="best" type="veh_passenger"/>
    <trip id="veh148" depart="1999.14" from="-4773029#1" to="-1424634880#0" departLane="best" type="veh_passenger" departSpeed="max"/>
    <trip id="veh149" depart="2012.65" from="-1132162834#0" to="1423958087" departLane="best" type="veh_passenger"/>
    <trip id="veh150" depart="2026.16" from="884209962#1" to="1040940511" departLane="best" type="veh_passenger"/>
    <trip id="veh151" depart="2039.67" from="199847247#0" to="375311153#1" departLane="best" type="veh_passenger"/>
    <trip id="veh152" depart="2053.18" from="-1132164863" to="-15973619#1" departLane="best" type="veh_passenger"/>
    <trip id="veh153" depart="2066.68" from="-147066248#8" to="22972470#3" departLane="best" type="veh_passenger"/>
    <trip id="veh154" depart="2080.19" from="147066248#2" to="-375311155#1" departLane="best" type="veh_passenger"/>
    <trip id="veh155" depart="2093.70" from="375311154#3" to="-1426897598#0" departLane="best" type="veh_passenger"/>
    <trip id="veh156" depart="2107.21" from="389101374#0" to="541763977#1" departLane="best" type="veh_passenger"/>
    <trip id="veh157" depart="2120.71" from="-1426897602#0" to="-1132164893#0" departLane="best" type="veh_passenger"/>
    <trip id="veh158" depart="2134.22" from="67099789#1" to="1123184403" departLane="best" type="veh_passenger"/>
    <trip id="veh159" depart="2147.73" from="35557143#2" to="-1421427239#0" departLane="best" type="veh_passenger"/>
    <trip id="veh160" depart="2161.24" from="-1426727707#0" to="375311154#3" departLane="best" type="veh_passenger"/>
    <trip id="veh161" depart="2174.75" from="375311157#0" to="1040940511" departLane="best" type="veh_passenger"/>
    <trip id="veh162" depart="2188.25" from="-1426897598#0" to="47755711#1" departLane="best" type="veh_passenger"/>
    <trip id="veh163" depart="2201.76" from="196850607#0" to="375312063#2" departLane="best" type="veh_passenger"/>
    <trip id="veh164" depart="2215.27" from="292429056" to="1149365724#1" departLane="best" type="veh_passenger"/>
    <trip id="veh165" depart="2228.78" from="375311154#0" to="541763977#1" departLane="best" type="veh_passenger"/>
    <trip id="veh166" depart="2242.28" from="-66071366#0" to="375311158#0" departLane="best" type="veh_passenger"/>
    <trip id="veh167" depart="2255.79" from="1426120129#1" to="1238797610#4" departLane="best" type="veh_passenger"/>
    <trip id="veh168" depart="2269.30" from="120359703" to="292429056" departLane="best" type="veh_passenger" departSpeed="max"/>
    <trip id="veh169" depart="2282.81" from="-47755711#2" to="42747981#1" departLane="best" type="veh_passenger"/>
    <trip id="veh170" depart="2296.31" from="42747981#1" to="-1424668407#0" departLane="best" type="veh_passenger"/>
    <trip id="veh171" depart="2309.82" from="43376693#5" to="-24509317#1" departLane="best" type="veh_passenger"/>
    <trip id="veh172" depart="2323.33" from="1123184404#1" to="4588222" departLane="best" type="veh_passenger"/>
    <trip id="veh173" depart="2336.84" from="-1105574289#1" to="4773029#1" departLane="best" type="veh_passenger"/>
    <trip id="veh174" depart="2350.35" from="-1424634884#0" to="25945760#1" departLane="best" type="veh_passenger"/>
    <trip id="veh175" depart="2363.85" from="233833576#0" to="196850609#2" departLane="best" type="veh_passenger"/>
    <trip id="veh176" depart="2377.36" from="1421185267#0" to="375311156#2" departLane="best" type="veh_passenger" departSpeed="max"/>
    <trip id="veh177" depart="2390.87" from="233833576#0" to="-734578686" departLane="best" type="veh_passenger"/>
    <trip id="veh178" depart="2404.38" from="24997595#1" to="-4611714#1" departLane="best" type="veh_passenger"/>
    <trip id="veh179" depart="2417.88" from="-375311153#0" to="-1426897603#0" departLane="best" type="veh_passenger"/>
    <trip id="veh180" depart="2431.39" from="1426120125#3" to="375311154#0" departLane="best" type="veh_passenger"/>
    <trip id="veh181" depart="2444.90" from="-35557161#1" to="-375311155#1" departLane="best" type="veh_passenger"/>
    <trip id="veh182" depart="2458.41" from="81113584#0" to="1421185260#1" departLane="best" type="veh_passenger" departSpeed="max"/>
    <trip id="veh183" depart="2471.92" from="-35557143#0" to="-1127602092#1" departLane="best" type="veh_passenger"/>
    <trip id="veh184" depart="2485.42" from="1426079060#1" to="-4611714#5" departLane="best" type="veh_passenger"/>
    <trip id="veh185" depart="2498.93" from="24509317#2" to="-1426897603#0" departLane="best" type="veh_passenger"/>
    <trip id="veh186" depart="2512.44" from="47755711#2" to="1238797610#2" departLane="best" type="veh_passenger"/>
    <trip id="veh187" depart="2525.95" from="-1423958087" to="196850607#0" departLane="best" type="veh_passenger" departSpeed="max"/>
    <trip id="veh188" depart="2539.45" from="-1195383150#2" to="-147066248#9" departLane="best" type="veh_passenger" departSpeed="max"/>
    <trip id="veh189" depart="2552.96" from="147066248#2" to="-67099789#2" departLane="best" type="veh_passenger"/>
    <trip id="veh190" depart="2566.47" from="375311156#0" to="168514765#1" departLane="best" type="veh_passenger"/>
    <trip id="veh191" depart="2579.98" from="1426079060#0" to="1151333058#0" departLane="best" type="veh_passenger" departSpeed="max"/>
    <trip id="veh192" depart="2593.48" from="171423001#1" to="168514765#1" departLane="best" type="veh_passenger"/>
    <trip id="veh193" depart="2606.99" from="375311154#1" to="4773029#1" departLane="best" type="veh_passenger"/>
    <trip id="veh194" depart="2620.50" from="199847252#2" to="-182623931" departLane="best" type="veh_passenger"/>
    <trip id="veh195" depart="2634.01" from="-327462543#1" to="-1421427239#0" departLane="best" type="veh_passenger"/>
    <trip id="veh196" depart="2647.52" from="-1009114665#1" to="1151333058#0" departLane="best" type="veh_passenger"/>
    <trip id="veh197" depart="2661.02" from="-4611711#1" to="243854725#1" departLane="best" type="veh_passenger"/>
    <trip id="veh198" depart="2674.53" from="120359703" to="1423958087" departLane="best" type="veh_passenger" departSpeed="max"/>
    <trip id="veh199" depart="2688.04" from="42102542#1" to="-1249342904#0" departLane="best" type="veh_passenger"/>
    <trip id="veh200" depart="2701.55" from="-25945760#1" to="-81113584#1" departLane="best" type="veh_passenger" departSpeed="max"/>
    <trip id="veh201" depart="2715.05" from="375311154#3" to="1426727707#3" departLane="best" type="veh_passenger"/>
    <trip id="veh202" depart="2728.56" from="-831860726" to="-1426897603#0" departLane="best" type="veh_passenger"/>
    <trip id="veh203" depart="2742.07" from="233833576#0" to="243854725#1" departLane="best" type="veh_passenger"/>
    <trip id="veh204" depart="2755.58" from="1421185267#0" to="-1423958088#0" departLane="best" type="veh_passenger" departSpeed="max"/>
    <trip id="veh205" depart="2769.09" from="110786129#1" to="-4611708#1" departLane="best" type="veh_passenger"/>
    <trip id="veh206" depart="2782.59" from="-1426120123#0" to="47755711#2" departLane="best" type="veh_passenger"/>
    <trip id="veh207" depart="2796.10" from="66071366#2" to="884209962#1" departLane="best" type="veh_passenger"/>
    <trip id="veh208" depart="2809.61" from="-1187575246" to="375311154#0" departLane="best" type="veh_passenger"/>
    <trip id="veh209" depart="2823.12" from="1249342904#1" to="196850609#2" departLane="best" type="veh_passenger"/>
    <trip id="veh210" depart="2836.62" from="16374191#1" to="196850608#0" departLane="best" type="veh_passenger"/>
    <trip id="veh211" depart="2850.13" from="1421185267#0" to="-1426079060#0" departLane="best" type="veh_passenger" departSpeed="max"/>
    <trip id="veh212" depart="2863.64" from="1127602092#1" to="1040940511" departLane="best" type="veh_passenger"/>
    <trip id="veh213" depart="2877.15" from="22972473#1" to="42747981#2" departLane="best" type="veh_passenger"/>
    <trip id="veh214" depart="2890.65" from="1123184403" to="233833576#0" departLane="best" type="veh_passenger"/>
    <trip id="veh215" depart="2904.16" from="-831860726" to="47707171#2" departLane="best" type="veh_passenger"/>
    <trip id="veh216" depart="2917.67" from="1228609316#1" to="-81113584#1" departLane="best" type="veh_passenger"/>
    <trip id="veh217" depart="2931.18" from="110786129#1" to="66071366#1" departLane="best" type="veh_passenger"/>
    <trip id="veh218" depart="2944.69" from="1151333058#1" to="1421185260#1" departLane="best" type="veh_passenger"/>
    <trip id="veh219" depart="2958.19" from="831860724#1" to="199847247#1" departLane="best" type="veh_passenger"/>
    <trip id="veh220" depart="2971.70" from="1426727707#3" to="1123184404#1" departLane="best" type="veh_passenger"/>
    <trip id="veh221" depart="2985.21" from="-35557161#2" to="1040940511" departLane="best" type="veh_passenger"/>
    <trip id="veh222" depart="2998.72" from="375311156#0" to="-35557161#1" departLane="best" type="veh_passenger"/>
    <trip id="veh223" depart="3012.22" from="120359703" to="243854725#1" departLane="best" type="veh_passenger" departSpeed="max"/>
    <trip id="veh224" depart="3025.73" from="1426897603#0" to="-1426079060#0" departLane="best" type="veh_passenger" departSpeed="max"/>
    <trip id="veh225" depart="3039.24" from="831860726" to="4611714#4" departLane="best" type="veh_passenger"/>
    <trip id="veh226" depart="3052.75" from="1238797610#2" to="-1426897602#0" departLane="best" type="veh_passenger"/>
    <trip id="veh227" depart="3066.26" from="35557143#3" to="1421185260#1" departLane="best" type="veh_passenger"/>
    <trip id="veh228" depart="3079.76" from="-66071366#2" to="375459783#1" departLane="best" type="veh_passenger"/>
    <trip id="veh229" depart="3093.27" from="1426897603#0" to="1105574289#2" departLane="best" type="veh_passenger" departSpeed="max"/>
    <trip id="veh230" depart="3106.78" from="-66071366#4" to="375311156#0" departLane="best" type="veh_passenger"/>
    <trip id="veh231" depart="3120.29" from="1421427239#0" to="375312063#0" departLane="best" type="veh_passenger"/>
    <trip id="veh232" depart="3133.79" from="1421185267#0" to="-147066248#9" departLane="best" type="veh_passenger" departSpeed="max"/>
    <trip id="veh233" depart="3147.30" from="1426120129#1" to="1040940511" departLane="best" type="veh_passenger"/>
    <trip id="veh234" depart="3160.81" from="1426897603#0" to="1423958087" departLane="best" type="veh_passenger" departSpeed="max"/>
    <trip id="veh235" depart="3174.32" from="1228609316#1" to="-840229277#0" departLane="best" type="veh_passenger"/>
    <trip id="veh236" depart="3187.83" from="-35557161#3" to="23755950" departLane="best" type="veh_passenger"/>
    <trip id="veh237" depart="3201.33" from="147066248#6" to="-43376693#5" departLane="best" type="veh_passenger"/>
    <trip id="veh238" depart="3214.84" from="375311154#3" to="243854725#1" departLane="best" type="veh_passenger"/>
    <trip id="veh239" depart="3228.35" from="81113584#0" to="1418921820#1" departLane="best" type="veh_passenger" departSpeed="max"/>
    <trip id="veh240" depart="3241.86" from="-1151333058#1" to="1418921820#3" departLane="best" type="veh_passenger"/>