<?xml version="1.0" encoding="UTF-8"?>

<!-- generated on 2025-11-07 14:45:46.820646 by Eclipse SUMO osmWebWizard.py v1_24_0+1801-75b7d1855be
<configuration>
    <net-file value="/Users/sohamghadge/sumo/tools/2025-11-07-14-45-26/osm.net.xml.gz"/>
    <output-trip-file value="/Users/sohamghadge/sumo/tools/2025-11-07-14-45-26/osm.bus.trips.xml"/>
    <route-file value="/Users/sohamghadge/sumo/tools/2025-11-07-14-45-26/osm.bus.rou.xml"/>
    <prefix value="bus"/>
    <trip-attributes value="departLane=&quot;best&quot;"/>
    <fringe-start-attributes value="departSpeed=&quot;max&quot;"/>
    <vehicle-class value="bus"/>
    <fringe-factor value="5"/>
    <edge-permission value="bus"/>
    <via-edge-types value="highway.motorway,highway.motorway_link,highway.trunk_link,highway.primary_link,highway.secondary_link,highway.tertiary_link"/>
    <min-distance value="600.0"/>
    <min-distance.fringe value="10.0"/>
    <remove-loops value="True"/>
    <insertion-density value="150.0"/>
</configuration>
-->

<routes xmlns:xsi="http://www.w3.org/2001/XMLSchema-instance" xsi:noNamespaceSchemaLocation="http://sumo.dlr.de/xsd/routes_file.xsd">
    <vType id="bus_bus" vClass="bus"/>
    <trip id="bus0" depart="0.00" from="-23755718#1" to="1426120125#3" via="-1426088354#0"  departLane="best" type="bus_bus"/>
    <trip id="bus1" depart="9.14" from="43376693#0" to="375311156#2" via="199847241#0"  departLane="best" type="bus_bus" departSpeed="max"/>
    <trip id="bus2" depart="18.29" from="375312063#0" to="-43376693#0" via="67099789#1"  departLane="best" type="bus_bus" departSpeed="max"/>
    <trip id="bus3" depart="27.43" from="1426120125#0" to="-1426120125#0" via="65040946#4"  departLane="best" type="bus_bus" departSpeed="max"/>
    <trip id="bus4" depart="36.57" from="43376693#0" to="-43376693#0" via="199847247#1"  departLane="best" type="bus_bus" departSpeed="max"/>
    <trip id="bus5" depart="45.72" from="199847241#1" to="-327462543#1" via="-375311158#0"  departLane="best" type="bus_bus"/>
    <trip id="bus6" depart="54.86" from="-665241888#3" to="199847244#2" via="43376693#1"  departLane="best" type="bus_bus" departSpeed="max"/>
    <trip id="bus7" depart="64.00" from="199847244#1" to="665241888#3" via="23755718#1"  departLane="best" type="bus_bus"/>
    <trip id="bus8" depart="73.15" from="1151333058#1" to="-1151333058#1" via="-1426088354#0"  departLane="best" type="bus_bus"/>
    <trip id="bus9" depart="82.29" from="199847252#3" to="665241888#3" via="23755718#1"  departLane="best" type="bus_bus"/>
    <trip id="bus10" depart="91.43" from="327462543#0" to="-327462543#1" via="23755718#0"  departLane="best" type="bus_bus" departSpeed="max"/>
    <trip id="bus11" depart="100.58" from="375312063#0" to="375311158#1" via="-1426088354#0"  departLane="best" type="bus_bus" departSpeed="max"/>
    <trip id="bus12" depart="109.72" from="-665241888#3" to="1426088354#3" via="23755718#1"  departLane="best" type="bus_bus" departSpeed="max"/>
    <trip id="bus13" depart="118.86" from="375311158#1" to="-43376693#1" via="199847241#0"  departLane="best" type="bus_bus"/>
    <trip id="bus14" depart="128.01" from="43376693#1" to="23755718#1" via="199847252#1"  departLane="best" type="bus_bus"/>
    <trip id="bus15" depart="137.15" from="327462543#0" to="81113584#0" via="-23755718#0"  departLane="best" type="bus_bus" departSpeed="max"/>
    <trip id="bus16" depart="146.29" from="-665241888#3" to="665241888#3" via="23755720#2"  departLane="best" type="bus_bus" departSpeed="max"/>
    <trip id="bus17" depart="155.44" from="-665241888#3" to="1426088354#3" via="375311158#1"  departLane="best" type="bus_bus" departSpeed="max"/>
    <trip id="bus18" depart="164.58" from="1151333058#1" to="-375311158#0" via="199847244#1"  departLane="best" type="bus_bus"/>
    <trip id="bus19" depart="173.72" from="-1426088354#0" to="199847241#0" via="-375311158#0"  departLane="best" type="bus_bus"/>
    <trip id="bus20" depart="182.87" from="1132163645" to="1426088354#3" via="23755718#0"  departLane="best" type="bus_bus" departSpeed="max"/>
    <trip id="bus21" depart="192.01" from="375312063#0" to="-1426120125#0" via="81113584#0"  departLane="best" type="bus_bus" departSpeed="max"/>
    <trip id="bus22" depart="201.16" from="-1426088354#3" to="-1426121051#0" via="43376693#1"  departLane="best" type="bus_bus" departSpeed="max"/>
    <trip id="bus23" depart="210.30" from="1132163645" to="1424668410#3" via="-23755718#0"  departLane="best" type="bus_bus" departSpeed="max"/>
    <trip id="bus24" depart="219.44" from="43376693#0" to="-1426120125#3" via="-65040946#3"  departLane="best" type="bus_bus" departSpeed="max"/>
    <trip id="bus25" depart="228.59" from="375312063#0" to="-43376693#0" via="-65040946#3"  departLane="best" type="bus_bus" departSpeed="max"/>
    <trip id="bus26" depart="237.73" from="375312063#0" to="23755718#1" via="199847247#0"  departLane="best" type="bus_bus" departSpeed="max"/>
    <trip id="bus27" depart="246.87" from="-23755718#1" to="-1151333058#1" via="-1426088354#0"  departLane="best" type="bus_bus"/>
    <trip id="bus28" depart="256.02" from="-23755718#0" to="-43376693#1" via="199847244#1"  departLane="best" type="bus_bus"/>
    <trip id="bus29" depart="265.16" from="327462543#0" to="-67099789#2" via="43376693#1"  departLane="best" type="bus_bus" departSpeed="max"/>
    <trip id="bus30" depart="274.30" from="375312063#0" to="1132167972#1" via="-665241888#0"  departLane="best" type="bus_bus" departSpeed="max"/>
    <trip id="bus31" depart="283.45" from="375312063#0" to="-1151333058#1" via="-435164424#0"  departLane="best" type="bus_bus" departSpeed="max"/>
    <trip id="bus32" depart="292.59" from="-23755720#2" to="-23755718#1" via="199847247#2"  departLane="best" type="bus_bus"/>
    <trip id="bus33" depart="301.73" from="1132163645" to="1426088354#3" via="23755718#0"  departLane="best" type="bus_bus" departSpeed="max"/>
    <trip id="bus34" depart="310.88" from="43376693#0" to="-43376693#0" via="199847247#0"  departLane="best" type="bus_bus" departSpeed="max"/>
    <trip id="bus35" depart="320.02" from="-81113584#1" to="1426088354#3" via="1151333058#0"  departLane="best" type="bus_bus"/>
    <trip id="bus36" depart="329.16" from="1132163645" to="-1424668407#0" via="-23755718#0"  departLane="best" type="bus_bus" departSpeed="max"/>
    <trip id="bus37" depart="338.31" from="-1132168055" to="-43376693#0" via="199847241#1"  departLane="best" type="bus_bus" departSpeed="max"/>
    <trip id="bus38" depart="347.45" from="-65040946#3" to="199847247#2" via="43376693#1"  departLane="best" type="bus_bus"/>
    <trip id="bus39" depart="356.59" from="327462543#0" to="1426088354#3" via="1151333058#1"  departLane="best" type="bus_bus" departSpeed="max"/>
    <trip id="bus40" depart="365.74" from="81113584#0" to="199847241#1" via="1426120125#3"  departLane="best" type="bus_bus"/>
    <trip id="bus41" depart="374.88" from="1426120125#0" to="23755718#0" via="-665241888#0"  departLane="best" type="bus_bus" departSpeed="max"/>
    <trip id="bus42" depart="384.02" from="1151333057#1" to="43376693#1" via="-1426088354#0"  departLane="best" type="bus_bus"/>
    <trip id="bus43" depart="393.17" from="-65040946#4" to="-1424668407#0" via="-23755718#1"  departLane="best" type="bus_bus"/>
    <trip id="bus44" depart="402.31" from="-1132168055" to="-43376693#0" via="199847252#1"  departLane="best" type="bus_bus" departSpeed="max"/>
    <trip id="bus45" depart="411.45" from="43376693#0" to="23755718#0" via="199847247#0"  departLane="best" type="bus_bus" departSpeed="max"/>
    <trip id="bus46" depart="420.60" from="43376693#0" to="-1426120125#3" via="-81113584#1"  departLane="best" type="bus_bus" departSpeed="max"/>
    <trip id="bus47" depart="429.74" from="375312063#2" to="1132167972#1" via="199847247#2"  departLane="best" type="bus_bus"/>
    <trip id="bus48" depart="438.88" from="199847241#0" to="65040946#6" via="-1426120125#3"  departLane="best" type="bus_bus"/>
    <trip id="bus49" depart="448.03" from="327462543#0" to="-327462543#1" via="-1426120125#3"  departLane="best" type="bus_bus" departSpeed="max"/>
    <trip id="bus50" depart="457.17" from="375312063#0" to="1132167972#1" via="67099789#1"  departLane="best" type="bus_bus" departSpeed="max"/>
    <trip id="bus51" depart="466.31" from="327462543#0" to="665241888#3" via="23755718#1"  departLane="best" type="bus_bus" departSpeed="max"/>
    <trip id="bus52" depart="475.46" from="199847252#1" to="1426088354#3" via="1151333058#0"  departLane="best" type="bus_bus"/>
    <trip id="bus53" depart="484.60" from="199847252#3" to="199847252#3" via="-23755718#1"  departLane="best" type="bus_bus"/>
    <trip id="bus54" depart="493.74" from="199847241#0" to="435164424#0" via="-1151333058#0"  departLane="best" type="bus_bus"/>
    <trip id="bus55" depart="502.89" from="1426120125#0" to="43376693#1" via="65040946#6"  departLane="best" type="bus_bus" departSpeed="max"/>
    <trip id="bus56" depart="512.03" from="375312063#0" to="-23755718#1" via="-81113584#1"  departLane="best" type="bus_bus" departSpeed="max"/>
    <trip id="bus57" depart="521.17" from="327462543#0" to="-327462543#1" via="43376693#1"  departLane="best" type="bus_bus" departSpeed="max"/>
    <trip id="bus58" depart="530.32" from="-665241888#3" to="199847252#3" via="-23755718#0"  departLane="best" type="bus_bus" departSpeed="max"/>
    <trip id="bus59" depart="539.46" from="-65040946#4" to="1426088354#3" via="1151333058#0"  departLane="best" type="bus_bus"/>
    <trip id="bus60" depart="548.60" from="81113584#0" to="665241888#3" via="-23755718#0"  departLane="best" type="bus_bus"/>
    <trip id="bus61" depart="557.75" from="327462543#0" to="665241888#3" via="23755718#0"  departLane="best" type="bus_bus" departSpeed="max"/>
    <trip id="bus62" depart="566.89" from="1426120125#0" to="-43376693#0" via="199847241#1"  departLane="best" type="bus_bus" departSpeed="max"/>
    <trip id="bus63" depart="576.04" from="375312063#0" to="-43376693#0" via="-65040946#3"  departLane="best" type="bus_bus" departSpeed="max"/>
    <trip id="bus64" depart="585.18" from="-1151333058#0" to="375311158#0" via="199847244#1"  departLane="best" type="bus_bus"/>
    <trip id="bus65" depart="594.32" from="-1426088354#3" to="435164424#0" via="1151333058#0"  departLane="best" type="bus_bus" departSpeed="max"/>
    <trip id="bus66" depart="603.47" from="375311158#0" to="-1426120125#0" via="-1426088354#0"  departLane="best" type="bus_bus"/>
    <trip id="bus67" depart="612.61" from="-43376693#1" to="1132167972#1" via="199847247#1"  departLane="best" type="bus_bus"/>
    <trip id="bus68" depart="621.75" from="1132163645" to="199847252#1" via="23755718#0"  departLane="best" type="bus_bus" departSpeed="max"/>
    <trip id="bus69" depart="630.90" from="375312063#0" to="-1151333058#1" via="199847244#1"  departLane="best" type="bus_bus" departSpeed="max"/>
    <trip id="bus70" depart="640.04" from="-1426088354#3" to="65040946#6" via="-1151333058#0"  departLane="best" type="bus_bus" departSpeed="max"/>
    <trip id="bus71" depart="649.18" from="-665241888#3" to="199847241#1" via="43376693#1"  departLane="best" type="bus_bus" departSpeed="max"/>
    <trip id="bus72" depart="658.33" from="199847247#1" to="-67099789#2" via="43376693#1"  departLane="best" type="bus_bus"/>
    <trip id="bus73" depart="667.47" from="43376693#0" to="-43376693#0" via="-65040946#4"  departLane="best" type="bus_bus" departSpeed="max"/>
    <trip id="bus74" depart="676.61" from="375312063#0" to="1123184404" via="-1426088354#0"  departLane="best" type="bus_bus" departSpeed="max"/>
    <trip id="bus75" depart="685.76" from="-23755720#2" to="-43376693#0" via="199847241#1"  departLane="best" type="bus_bus"/>
    <trip id="bus76" depart="694.90" from="375312063#0" to="1151333058#0" via="199847244#1"  departLane="best" type="bus_bus" departSpeed="max"/>
    <trip id="bus77" depart="704.04" from="327462543#0" to="-327462543#1" via="375311158#0"  departLane="best" type="bus_bus" departSpeed="max"/>
    <trip id="bus78" depart="713.19" from="-1132168055" to="375311156#2" via="199847247#1"  departLane="best" type="bus_bus" departSpeed="max"/>
    <trip id="bus79" depart="722.33" from="43376693#0" to="-43376693#1" via="65040946#4"  departLane="best" type="bus_bus" departSpeed="max"/>
    <trip id="bus80" depart="731.47" from="327462543#0" to="1426088354#3" via="-43376693#1"  departLane="best" type="bus_bus" departSpeed="max"/>
    <trip id="bus81" depart="740.62" from="43376693#0" to="375311158#1" via="199847241#1"  departLane="best" type="bus_bus" departSpeed="max"/>
    <trip id="bus82" depart="749.76" from="375311158#0" to="-43376693#0" via="-65040946#4"  departLane="best" type="bus_bus"/>
    <trip id="bus83" depart="758.90" from="1132163645" to="665241888#3" via="-23755720#2"  departLane="best" type="bus_bus" departSpeed="max"/>
    <trip id="bus84" depart="768.05" from="-43376693#1" to="-1426120125#0" via="199847244#1"  departLane="best" type="bus_bus"/>
    <trip id="bus85" depart="777.19" from="1426120125#0" to="-1426120125#3" via="199847241#1"  departLane="best" type="bus_bus" departSpeed="max"/>
    <trip id="bus86" depart="786.33" from="-1426088354#3" to="-327462543#1" via="-1426120125#3"  departLane="best" type="bus_bus" departSpeed="max"/>
    <trip id="bus87" depart="795.48" from="327462543#0" to="-67099789#2" via="-23755718#0"  departLane="best" type="bus_bus" departSpeed="max"/>
    <trip id="bus88" depart="804.62" from="375312063#0" to="1132167972#1" via="67099789#1"  departLane="best" type="bus_bus" departSpeed="max"/>
    <trip id="bus89" depart="813.76" from="65040946#6" to="1426088354#3" via="-375311158#0"  departLane="best" type="bus_bus"/>
    <trip id="bus90" depart="822.91" from="43376693#0" to="-375311158#0" via="65040946#6"  departLane="best" type="bus_bus" departSpeed="max"/>
    <trip id="bus91" depart="832.05" from="1151333058#0" to="23755718#1" via="199847247#0"  departLane="best" type="bus_bus"/>
    <trip id="bus92" depart="841.19" from="-1426088354#3" to="65040946#6" via="1151333058#1"  departLane="best" type="bus_bus" departSpeed="max"/>
    <trip id="bus93" depart="850.34" from="43376693#0" to="-1426120125#3" via="81113584#0"  departLane="best" type="bus_bus" departSpeed="max"/>
    <trip id="bus94" depart="859.48" from="1151333058#1" to="-43376693#0" via="435164424#0"  departLane="best" type="bus_bus"/>
    <trip id="bus95" depart="868.62" from="-43376693#1" to="1123184404" via="199847241#1"  departLane="best" type="bus_bus"/>
    <trip id="bus96" depart="877.77" from="327462543#0" to="1426088354#3" via="-23755718#1"  departLane="best" type="bus_bus" departSpeed="max"/>
    <trip id="bus97" depart="886.91" from="1132163645" to="-67099789#2" via="23755718#1"  departLane="best" type="bus_bus" departSpeed="max"/>
    <trip id="bus98" depart="896.05" from="-1426088354#3" to="65040946#6" via="1426120125#3"  departLane="best" type="bus_bus" departSpeed="max"/>
    <trip id="bus99" depart="905.20" from="-1426088354#3" to="-1424668407#0" via="-23755720#2"  departLane="best" type="bus_bus" departSpeed="max"/>
    <trip id="bus100" depart="914.34" from="327462543#0" to="-435164424#0" via="-1151333058#0"  departLane="best" type="bus_bus" departSpeed="max"/>
    <trip id="bus101" depart="923.48" from="-23755718#0" to="-43376693#0" via="199847252#2"  departLane="best" type="bus_bus"/>
    <trip id="bus102" depart="932.63" from="-81113584#1" to="665241888#3" via="-23755720#2"  departLane="best" type="bus_bus"/>
    <trip id="bus103" depart="941.77" from="-1151333058#0" to="-43376693#0" via="-65040946#3"  departLane="best" type="bus_bus"/>
    <trip id="bus104" depart="950.92" from="43376693#0" to="-1426120123#0" via="435164424#0"  departLane="best" type="bus_bus" departSpeed="max"/>
    <trip id="bus105" depart="960.06" from="1132163645" to="1073015940#3" via="-23755718#0"  departLane="best" type="bus_bus" departSpeed="max"/>
    <trip id="bus106" depart="969.20" from="-1151333058#0" to="-43376693#1" via="199847244#1"  departLane="best" type="bus_bus"/>
    <trip id="bus107" depart="978.35" from="43376693#0" to="-1426120125#0" via="199847244#1"  departLane="best" type="bus_bus" departSpeed="max"/>
    <trip id="bus108" depart="987.49" from="43376693#0" to="23755720#2" via="67099789#1"  departLane="best" type="bus_bus" departSpeed="max"/>
    <trip id="bus109" depart="996.63" from="327462543#0" to="-1424668407#0" via="-23755720#2"  departLane="best" type="bus_bus" departSpeed="max"/>
    <trip id="bus110" depart="1005.78" from="199847244#2" to="375459783#1" via="23755718#1"  departLane="best" type="bus_bus"/>
    <trip id="bus111" depart="1014.92" from="327462543#0" to="-327462543#1" via="43376693#1"  departLane="best" type="bus_bus" departSpeed="max"/>
    <trip id="bus112" depart="1024.06" from="43376693#0" to="23755718#0" via="199847244#1"  departLane="best" type="bus_bus" departSpeed="max"/>
    <trip id="bus113" depart="1033.21" from="1132163645" to="199847244#1" via="43376693#1"  departLane="best" type="bus_bus" departSpeed="max"/>
    <trip id="bus114" depart="1042.35" from="-1132168055" to="1426120125#3" via="-665241888#0"  departLane="best" type="bus_bus" departSpeed="max"/>
    <trip id="bus115" depart="1051.49" from="-1132168055" to="23755718#1" via="199847247#1"  departLane="best" type="bus_bus" departSpeed="max"/>
    <trip id="bus116" depart="1060.64" from="-1426088354#3" to="65040946#4" via="-43376693#1"  departLane="best" type="bus_bus" departSpeed="max"/>
    <trip id="bus117" depart="1069.78" from="-1426088354#3" to="199847244#1" via="43376693#1"  departLane="best" type="bus_bus" departSpeed="max"/>
    <trip id="bus118" depart="1078.92" from="-1132168055" to="-1426120125#0" via="199847247#0"  departLane="best" type="bus_bus" departSpeed="max"/>
    <trip id="bus119" depart="1088.07" from="375312063#0" to="-43376693#0" via="199847241#0"  departLane="best" type="bus_bus" departSpeed="max"/>
    <trip id="bus120" depart="1097.21" from="1426120125#3" to="-43376693#0" via="67099789#1"  departLane="best" type="bus_bus"/>
    <trip id="bus121" depart="1106.35" from="-1426088354#3" to="-435164424#0" via="-1151333058#0"  departLane="best" type="bus_bus" departSpeed="max"/>
    <trip id="bus122" depart="1115.50" from="-1132168055" to="-43376693#0" via="-665241888#0"  departLane="best" type="bus_bus" departSpeed="max"/>
    <trip id="bus123" depart="1124.64" from="-665241888#3" to="199847247#0" via="-23755718#1"  departLane="best" type="bus_bus" departSpeed="max"/>
    <trip id="bus124" depart="1133.78" from="199847252#2" to="-327462543#1" via="-23755718#1"  departLane="best" type="bus_bus"/>
    <trip id="bus125" depart="1142.93" from="43376693#0" to="-375311158#0" via="199847241#1"  departLane="best" type="bus_bus" departSpeed="max"/>
    <trip id="bus126" depart="1152.07" from="-665241888#3" to="81113584#0" via="23755718#0"  departLane="best" type="bus_bus" departSpeed="max"/>
    <trip id="bus127" depart="1161.21" from="-665241888#3" to="22972470#2" via="-23755718#1"  departLane="best" type="bus_bus" departSpeed="max"/>
    <trip id="bus128" depart="1170.36" from="-1132168055" to="1123184404" via="-665241888#0"  departLane="best" type="bus_bus" departSpeed="max"/>
    <trip id="bus129" depart="1179.50" from="-375311158#0" to="-43376693#0" via="-81113584#1"  departLane="best" type="bus_bus"/>
    <trip id="bus130" depart="1188.64" from="-435164424#0" to="-1424668407#0" via="43376693#1"  departLane="best" type="bus_bus"/>
    <trip id="bus131" depart="1197.79" from="1132163645" to="-65040946#2" via="43376693#1"  departLane="best" type="bus_bus" departSpeed="max"/>
    <trip id="bus132" depart="1206.93" from="1132163645" to="-1424668407#0" via="-23755718#0"  departLane="best" type="bus_bus" departSpeed="max"/>
    <trip id="bus133" depart="1216.07" from="-23755718#1" to="-1426120123#0" via="199847247#1"  departLane="best" type="bus_bus"/>
    <trip id="bus134" depart="1225.22" from="110786129#1" to="-43376693#1" via="81113584#0"  departLane="best" type="bus_bus"/>
    <trip id="bus135" depart="1234.36" from="43376693#0" to="1123184404" via="81113584#0"  departLane="best" type="bus_bus" departSpeed="max"/>
    <trip id="bus136" depart="1243.50" from="-43376693#1" to="1132167972#1" via="199847247#1"  departLane="best" type="bus_bus"/>
    <trip id="bus137" depart="1252.65" from="199847247#1" to="199847252#3" via="-23755718#0"  departLane="best" type="bus_bus"/>
    <trip id="bus138" depart="1261.79" from="43376693#0" to="1132167972#1" via="199847252#2"  departLane="best" type="bus_bus" departSpeed="max"/>
    <trip id="bus139" depart="1270.93" from="-1151333058#0" to="-43376693#1" via="-435164424#0"  departLane="best" type="bus_bus"/>
    <trip id="bus140" depart="1280.08" from="-1426088354#3" to="65040946#3" via="-375311158#0"  departLane="best" type="bus_bus" departSpeed="max"/>
    <trip id="bus141" depart="1289.22" from="-1426088354#3" to="81113584#0" via="1151333058#0"  departLane="best" type="bus_bus" departSpeed="max"/>
    <trip id="bus142" depart="1298.36" from="375311158#0" to="-43376693#0" via="-65040946#3"  departLane="best" type="bus_bus"/>
    <trip id="bus143" depart="1307.51" from="1132163645" to="-67099789#2" via="23755718#1"  departLane="best" type="bus_bus" departSpeed="max"/>
    <trip id="bus144" depart="1316.65" from="81113584#0" to="-1424668407#0" via="-23755720#2"  departLane="best" type="bus_bus"/>
    <trip id="bus145" depart="1325.80" from="-1426088354#3" to="199847244#2" via="375311158#1"  departLane="best" type="bus_bus" departSpeed="max"/>
    <trip id="bus146" depart="1334.94" from="1426120125#0" to="1123184404" via="-1426088354#0"  departLane="best" type="bus_bus" departSpeed="max"/>
    <trip id="bus147" depart="1344.08" from="1132163645" to="81113584#0" via="23755718#1"  departLane="best" type="bus_bus" departSpeed="max"/>
    <trip id="bus148" depart="1353.23" from="1132163645" to="1426088354#3" via="-23755718#0"  departLane="best" type="bus_bus" departSpeed="max"/>
    <trip id="bus149" depart="1362.37" from="375311155#0" to="199847241#1" via="43376693#1"  departLane="best" type="bus_bus"/>
    <trip id="bus150" depart="1371.51" from="375312063#0" to="-43376693#0" via="199847241#0"  departLane="best" type="bus_bus" departSpeed="max"/>
    <trip id="bus151" depart="1380.66" from="65040946#2" to="-327462543#1" via="43376693#1"  departLane="best" type="bus_bus"/>
    <trip id="bus152" depart="1389.80" from="-1421593691#1" to="-327462543#1" via="43376693#1"  departLane="best" type="bus_bus" departSpeed="max"/>
    <trip id="bus153" depart="1398.94" from="199847241#0" to="665241888#3" via="23755718#1"  departLane="best" type="bus_bus"/>
    <trip id="bus154" depart="1408.09" from="-665241888#3" to="-1424668407#0" via="-23755720#2"  departLane="best" type="bus_bus" departSpeed="max"/>
    <trip id="bus155" depart="1417.23" from="-665241888#3" to="199847247#2" via="23755718#1"  departLane="best" type="bus_bus" departSpeed="max"/>
    <trip id="bus156" depart="1426.37" from="-1426120125#3" to="-43376693#0" via="81113584#0"  departLane="best" type="bus_bus"/>
    <trip id="bus157" depart="1435.52" from="1151333058#0" to="1123184404" via="199847241#1"  departLane="best" type="bus_bus"/>
    <trip id="bus158" depart="1444.66" from="-23755718#0" to="43376693#1" via="-665241888#0"  departLane="best" type="bus_bus"/>
    <trip id="bus159" depart="1453.80" from="-1426088354#3" to="-327462543#1" via="1426120125#3"  departLane="best" type="bus_bus" departSpeed="max"/>
    <trip id="bus160" depart="1462.95" from="435164424#0" to="199847247#1" via="-23755718#1"  departLane="best" type="bus_bus"/>
    <trip id="bus161" depart="1472.09" from="199847247#0" to="665241888#3" via="-23755720#2"  departLane="best" type="bus_bus"/>
    <trip id="bus162" depart="1481.23" from="375312063#0" to="23755718#1" via="199847252#1"  departLane="best" type="bus_bus" departSpeed="max"/>
    <trip id="bus163" depart="1490.38" from="-1426088354#3" to="-327462543#1" via="375311158#1"  departLane="best" type="bus_bus" departSpeed="max"/>
    <trip id="bus164" depart="1499.52" from="-1426088354#0" to="1426088354#3" via="-375311158#0"  departLane="best" type="bus_bus"/>
    <trip id="bus165" depart="1508.66" from="43376693#0" to="-43376693#0" via="-665241888#0"  departLane="best" type="bus_bus" departSpeed="max"/>
    <trip id="bus166" depart="1517.81" from="81113584#0" to="1421593691#1" via="43376693#1"  departLane="best" type="bus_bus"/>
    <trip id="bus167" depart="1526.95" from="1132163645" to="22972470#1" via="23755718#1"  departLane="best" type="bus_bus" departSpeed="max"/>
    <trip id="bus168" depart="1536.09" from="43376693#0" to="1123184404" via="199847247#1"  departLane="best" type="bus_bus" departSpeed="max"/>
    <trip id="bus169" depart="1545.24" from="199847252#2" to="199847247#1" via="23755718#0"  departLane="best" type="bus_bus"/>
    <trip id="bus170" depart="1554.38" from="375312063#0" to="1123184404" via="199847247#0"  departLane="best" type="bus_bus" departSpeed="max"/>
    <trip id="bus171" depart="1563.52" from="1426120125#0" to="-43376693#0" via="-65040946#4"  departLane="best" type="bus_bus" departSpeed="max"/>
    <trip id="bus172" depart="1572.67" from="110786129#1" to="1132167972#1" via="199847247#0"  departLane="best" type="bus_bus"/>
    <trip id="bus173" depart="1581.81" from="-1426088354#3" to="199847244#1" via="-43376693#1"  departLane="best" type="bus_bus" departSpeed="max"/>
    <trip id="bus174" depart="1590.95" from="1426120125#0" to="-1426120125#0" via="-1426088354#0"  departLane="best" type="bus_bus" departSpeed="max"/>
    <trip id="bus175" depart="1600.10" from="375459783#1" to="199847252#2" via="-23755720#2"  departLane="best" type="bus_bus"/>
    <trip id="bus176" depart="1609.24" from="199847247#2" to="665241888#3" via="23755718#1"  departLane="best" type="bus_bus"/>
    <trip id="bus177" depart="1618.38" from="375312063#0" to="1123184404" via="-435164424#0"  departLane="best" type="bus_bus" departSpeed="max"/>
    <trip id="bus178" depart="1627.53" from="1132163645" to="-65040946#2" via="43376693#1"  departLane="best" type="bus_bus" departSpeed="max"/>
    <trip id="bus179" depart="1636.67" from="1132163645" to="199847252#3" via="43376693#1"  departLane="best" type="bus_bus" departSpeed="max"/>
    <trip id="bus180" depart="1645.81" from="199847241#0" to="665241888#3" via="43376693#1"  departLane="best" type="bus_bus"/>
    <trip id="bus181" depart="1654.96" from="-1426088354#3" to="-65040946#4" via="43376693#1"  departLane="best" type="bus_bus" departSpeed="max"/>
    <trip id="bus182" depart="1664.10" from="1151333058#0" to="-43376693#0" via="-435164424#0"  departLane="best" type="bus_bus"/>
    <trip id="bus183" depart="1673.24" from="1132163645" to="1426088354#3" via="43376693#1"  departLane="best" type="bus_bus" departSpeed="max"/>
    <trip id="bus184" depart="1682.39" from="-665241888#3" to="1426088354#3" via="1151333058#0"  departLane="best" type="bus_bus" departSpeed="max"/>
    <trip id="bus185" depart="1691.53" from="23755718#1" to="-43376693#0" via="199847252#1"  departLane="best" type="bus_bus"/>
    <trip id="bus186" depart="1700.68" from="43376693#0" to="-1426120125#0" via="199847247#2"  departLane="best" type="bus_bus" departSpeed="max"/>
    <trip id="bus187" depart="1709.82" from="1426120125#0" to="-1426120123#0" via="-65040946#4"  departLane="best" type="bus_bus" departSpeed="max"/>
    <trip id="bus188" depart="1718.96" from="-665241888#3" to="-665241888#0" via="23755718#1"  departLane="best" type="bus_bus" departSpeed="max"/>
    <trip id="bus189" depart="1728.11" from="43376693#0" to="-43376693#0" via="435164424#0"  departLane="best" type="bus_bus" departSpeed="max"/>
    <trip id="bus190" depart="1737.25" from="375312063#2" to="1123184404" via="-435164424#0"  departLane="best" type="bus_bus"/>
    <trip id="bus191" depart="1746.39" from="23755718#0" to="1132167972#1" via="199847247#1"  departLane="best" type="bus_bus"/>
    <trip id="bus192" depart="1755.54" from="327462543#0" to="65040946#6" via="-375311158#0"  departLane="best" type="bus_bus" departSpeed="max"/>
    <trip id="bus193" depart="1764.68" from="43376693#0" to="-43376693#0" via="-435164424#0"  departLane="best" type="bus_bus" departSpeed="max"/>
    <trip id="bus194" depart="1773.82" from="81113584#0" to="199847241#0" via="1426120125#3"  departLane="best" type="bus_bus"/>
    <trip id="bus195" depart="1782.97" from="-375311158#0" to="-1426120125#0" via="-435164424#0"  departLane="best" type="bus_bus"/>
    <trip id="bus196" depart="1792.11" from="43376693#0" to="-43376693#0" via="-81113584#1"  departLane="best" type="bus_bus" departSpeed="max"/>
    <trip id="bus197" depart="1801.25" from="1132163645" to="665241888#3" via="43376693#1"  departLane="best" type="bus_bus" departSpeed="max"/>
    <trip id="bus198" depart="1810.40" from="327462543#0" to="665241888#3" via="23755718#0"  departLane="best" type="bus_bus" departSpeed="max"/>
    <trip id="bus199" depart="1819.54" from="375312063#0" to="-1426120125#0" via="199847241#0"  departLane="best" type="bus_bus" departSpeed="max"/>
    <trip id="bus200" depart="1828.68" from="1132163645" to="1426088354#3" via="43376693#1"  departLane="best" type="bus_bus" departSpeed="max"/>
    <trip id="bus201" depart="1837.83" from="-1426120123#0" to="23755718#1" via="-665241888#0"  departLane="best" type="bus_bus"/>
    <trip id="bus202" depart="1846.97" from="327462543#0" to="-327462543#1" via="23755718#0"  departLane="best" type="bus_bus" departSpeed="max"/>
    <trip id="bus203" depart="1856.11" from="375312063#0" to="1123184404" via="-665241888#0"  departLane="best" type="bus_bus" departSpeed="max"/>
    <trip id="bus204" depart="1865.26" from="43376693#0" to="1123184404" via="-435164424#0"  departLane="best" type="bus_bus" departSpeed="max"/>