<?xml version="1.0" encoding="UTF-8"?>

<!-- generated on 2025-11-09 14:10:23 by Eclipse SUMO netconvert Version 1.20.0
<configuration xmlns:xsi="http://www.w3.org/2001/XMLSchema-instance" xsi:noNamespaceSchemaLocation="http://sumo.dlr.de/xsd/netconvertConfiguration.xsd">

    <input>
        <sumo-net-file value="osm.net.xml.gz"/>
    </input>

    <output>
        <plain-output-prefix value="plain"/>
        <output.street-names value="true"/>
    </output>

    <processing>
        <geometry.min-radius.fix.railways value="false"/>
        <geometry.max-grade.fix value="false"/>
        <offset.disable-normalization value="true"/>
        <lefthand value="0"/>
    </processing>

    <junctions>
        <no-turnarounds value="true"/>
        <junctions.corner-detail value="5"/>
        <junctions.limit-turn-speed value="5.50"/>
        <rectangular-lane-cut value="0"/>
    </junctions>

    <pedestrian>
        <walkingareas value="0"/>
    </pedestrian>

</configuration>
-->

<tlLogics version="1.20" xmlns:xsi="http://www.w3.org/2001/XMLSchema-instance" xsi:noNamespaceSchemaLocation="http://sumo.dlr.de/xsd/tllogic_file.xsd">
    <tlLogic id="3922677124" type="actuated" programID="0" offset="0">
        <phase duration="82" state="GGG" minDur="5" maxDur="50"/>
        <phase duration="3"  state="yyy"/>
        <phase duration="5"  state="rrr"/>
    </tlLogic>
    <tlLogic id="3922677139" type="actuated" programID="0" offset="0">
        <phase duration="82" state="GGG" minDur="5" maxDur="50"/>
        <phase duration="3"  state="yyy"/>
        <phase duration="5"  state="rrr"/>
    </tlLogic>
    <tlLogic id="cluster_11032026989_11032026990_1818648902_4513758573_#2more" type="actuated" programID="0" offset="0">
        <phase duration="33" state="GGGggrrrrGGGggrrrr" minDur="5" maxDur="50"/>
        <phase duration="3"  state="yyyggrrrryyyggrrrr"/>
        <phase duration="6"  state="rrrGGrrrrrrrGGrrrr" minDur="5" maxDur="50"/>
        <phase duration="3"  state="rrryyrrrrrrryyrrrr"/>
        <phase duration="1"  state="rrrrrrrrrrrrrrrrrr"/>
        <phase duration="32" state="rrrrrGGggrrrrrGGgg" minDur="5" maxDur="50"/>
        <phase duration="3"  state="rrrrryyggrrrrryygg"/>
        <phase duration="6"  state="rrrrrrrGGrrrrrrrGG" minDur="5" maxDur="50"/>
        <phase duration="3"  state="rrrrrrryyrrrrrrryy"/>
    </tlLogic>
    <tlLogic id="cluster_1602745846_25663747_6172769860_6172769861_#2more" type="actuated" programID="0" offset="0">
        <phase duration="36" state="GGGggrrrrGGGgg" minDur="5" maxDur="50"/>
        <phase duration="3"  state="yyyggrrrryyygg"/>
        <phase duration="6"  state="rrrGGrrrrrrrGG" minDur="5" maxDur="50"/>
        <phase duration="3"  state="rrryyrrrrrrryy"/>
        <phase duration="1"  state="rrrrrrrrrrrrrr"/>
        <phase duration="36" state="rrrrrGGGgGrrrr" minDur="5" maxDur="50"/>
        <phase duration="3"  state="rrrrryyyyyrrrr"/>
        <phase duration="2"  state="rrrrrrrrrrrrrr"/>
    </tlLogic>
    <tlLogic id="cluster_160514854_4177965507_4177965512" type="actuated" programID="0" offset="0">
        <phase duration="42" state="GggrrrGGg" minDur="5" maxDur="50"/>
        <phase duration="3"  state="yyyrrrGyy"/>
        <phase duration="42" state="rrrGGgGrr" minDur="5" maxDur="50"/>
        <phase duration="3"  state="rrryyyGrr"/>
    </tlLogic>
    <tlLogic id="cluster_2071423335_25662916_4591015614_4591015618_#3more" type="actuated" programID="0" offset="0">
        <phase duration="42" state="GGggrrrrGGgrrrr" minDur="5" maxDur="50"/>
        <phase duration="3"  state="yyyyrrrryyyrrrr"/>
        <phase duration="41" state="rrrrGGggrrrGGgg" minDur="5" maxDur="50"/>
        <phase duration="3"  state="rrrryyyyrrryyyy"/>
        <phase duration="1"  state="rrrrrrrrrrrrrrr"/>
    </tlLogic>
    <tlLogic id="cluster_25662710_5984014360_5984014361_5984014362_#1more" type="actuated" programID="0" offset="0">
        <phase duration="86" state="GGggGGgg" minDur="5" maxDur="50"/>
        <phase duration="3"  state="yyyyyyyy"/>
        <phase duration="1"  state="rrrrrrrr"/>
    </tlLogic>
    <tlLogic id="cluster_25663395_6172767595_6172767596_6172767597_#1more" type="actuated" programID="0" offset="0">
        <phase duration="86" state="GGG" minDur="5" maxDur="50"/>
        <phase duration="3"  state="yyy"/>
        <phase duration="1"  state="rrr"/>
    </tlLogic>
    <tlLogic id="cluster_4605728288_4605728802_4605728803_4605728806_#4more" type="actuated" programID="0" offset="0">
        <phase duration="42" state="rrrrGGggrrrrGGgg" minDur="5" maxDur="50"/>
        <phase duration="3"  state="rrrryyyyrrrryyyy"/>
        <phase duration="42" state="GGggrrrrGGggrrrr" minDur="5" maxDur="50"/>
        <phase duration="3"  state="yyyyrrrryyyyrrrr"/>
    </tlLogic>
    <tlLogic id="joinedS_1263283300_1263283307_1263283312_cluster_1263283302_29207822_29207827_3922677127" type="actuated" programID="0" offset="0">
        <phase duration="35" state="GGGGGGGGGGGGGGGgGGGggrrrr" minDur="5" maxDur="50"/>
        <phase duration="3"  state="yyyyGGGGGGGyyyyyGGGggrrrr"/>
        <phase duration="6"  state="rrrrGGGGGGGrrrrrGGGGGrrrr" minDur="5" maxDur="50"/>
        <phase duration="3"  state="rrrryyyyyyyrrrrryyyyyrrrr"/>
        <phase duration="3"  state="rrrrrrrrrrrrrrrrrrrrrrrrr"/>
        <phase duration="34" state="rrrrGGGrrrrGrrrrrrrrrGGGg" minDur="5" maxDur="50"/>
        <phase duration="3"  state="rrrryyyrrrryrrrrrrrrryyyy"/>
        <phase duration="3"  state="rrrrrrrrrrrrrrrrrrrrrrrrr"/>
    </tlLogic>
    <tlLogic id="joinedS_2659182539_cluster_10286920457_12150522204_13025705486_2659182536_#10more" type="actuated" programID="0" offset="0">
        <phase duration="37" state="GGGGGGGgggggggGrrrrGGGGggrrrrr" minDur="5" maxDur="50"/>
        <phase duration="3"  state="yyyyyyyyyyyyyyGrrrryyyyyyrrrrr"/>
        <phase duration="37" state="rrrrrrrrrrrrrrGGGggrrrrrrGGGgg" minDur="5" maxDur="50"/>
        <phase duration="3"  state="rrrrrrrrrrrrrryyyggrrrrrryyygg"/>
        <phase duration="6"  state="rrrrrrrrrrrrrrrrrGGrrrrrrrrrGG" minDur="5" maxDur="50"/>
        <phase duration="3"  state="rrrrrrrrrrrrrrrrryyrrrrrrrrryy"/>
        <phase duration="1"  state="rrrrrrrrrrrrrrrrrrrrrrrrrrrrrr"/>
    </tlLogic>

    <connection from="-1132164863" to="-1132164893#0" fromLane="0" toLane="0" tl="cluster_25663395_6172767595_6172767596_6172767597_#1more" linkIndex="0"/>
    <connection from="-1190781965" to="1190781963#1" fromLane="0" toLane="0" tl="cluster_2071423335_25662916_4591015614_4591015618_#3more" linkIndex="0"/>
    <connection from="-1190781965" to="196850609#0" fromLane="0" toLane="0" tl="cluster_2071423335_25662916_4591015614_4591015618_#3more" linkIndex="1"/>
    <connection from="-1190781965" to="-1190781962#0" fromLane="0" toLane="0" tl="cluster_2071423335_25662916_4591015614_4591015618_#3more" linkIndex="2"/>
    <connection from="-1190781965" to="42102542#1" fromLane="0" toLane="0" tl="cluster_2071423335_25662916_4591015614_4591015618_#3more" linkIndex="3"/>
    <connection from="-1423958087" to="-1423958086#0" fromLane="0" toLane="0" tl="cluster_160514854_4177965507_4177965512" linkIndex="0"/>
    <connection from="-1423958087" to="-1423958088#0" fromLane="0" toLane="0" tl="cluster_160514854_4177965507_4177965512" linkIndex="1"/>
    <connection from="-1423958087" to="1423958087" fromLane="0" toLane="0" tl="cluster_160514854_4177965507_4177965512" linkIndex="2"/>
    <connection from="-1424668407#0" to="1136657264#3" fromLane="0" toLane="0" tl="cluster_4605728288_4605728802_4605728803_4605728806_#4more" linkIndex="4"/>
    <connection from="-1424668407#0" to="-1424634884#0" fromLane="0" toLane="0" tl="cluster_4605728288_4605728802_4605728803_4605728806_#4more" linkIndex="5"/>
    <connection from="-1424668407#0" to="47707170#3" fromLane="0" toLane="0" tl="cluster_4605728288_4605728802_4605728803_4605728806_#4more" linkIndex="6"/>
    <connection from="-1424668407#0" to="1424634884#4" fromLane="0" toLane="0" tl="cluster_4605728288_4605728802_4605728803_4605728806_#4more" linkIndex="7"/>
    <connection from="-1426897602#0" to="243854725#1" fromLane="0" toLane="0" tl="cluster_25662710_5984014360_5984014361_5984014362_#1more" linkIndex="4"/>
    <connection from="-1426897602#0" to="-1426897598#0" fromLane="0" toLane="0" tl="cluster_25662710_5984014360_5984014361_5984014362_#1more" linkIndex="5"/>
    <connection from="-1426897602#0" to="22972473#1" fromLane="0" toLane="0" tl="cluster_25662710_5984014360_5984014361_5984014362_#1more" linkIndex="6"/>
    <connection from="-1426897602#0" to="1426897598#3" fromLane="0" toLane="0" tl="cluster_25662710_5984014360_5984014361_5984014362_#1more" linkIndex="7"/>
    <connection from="-199847347#1" to="-199847347#0" fromLane="0" toLane="0" tl="2182805372" linkIndex="0"/>
    <connection from="-295255792#1" to="-295255792#0" fromLane="0" toLane="0" tl="2182805370" linkIndex="0"/>
    <connection from="-35557143#0" to="196850609#0" fromLane="0" toLane="0" tl="cluster_2071423335_25662916_4591015614_4591015618_#3more" linkIndex="11"/>
    <connection from="-35557143#0" to="-1190781962#0" fromLane="0" toLane="0" tl="cluster_2071423335_25662916_4591015614_4591015618_#3more" linkIndex="12"/>
    <connection from="-35557143#0" to="42102542#1" fromLane="0" toLane="0" tl="cluster_2071423335_25662916_4591015614_4591015618_#3more" linkIndex="13"/>
    <connection from="-35557143#0" to="1190781963#1" fromLane="0" toLane="0" tl="cluster_2071423335_25662916_4591015614_4591015618_#3more" linkIndex="14"/>
    <connection from="-67099789#2" to="199847252#1" fromLane="0" toLane="0" tl="cluster_11032026989_11032026990_1818648902_4513758573_#2more" linkIndex="0"/>
    <connection from="-67099789#2" to="-327462543#1" fromLane="0" toLane="0" tl="cluster_11032026989_11032026990_1818648902_4513758573_#2more" linkIndex="1"/>
    <connection from="-67099789#2" to="-327462543#1" fromLane="1" toLane="1" tl="cluster_11032026989_11032026990_1818648902_4513758573_#2more" linkIndex="2"/>
    <connection from="-67099789#2" to="-81113584#1" fromLane="2" toLane="0" tl="cluster_11032026989_11032026990_1818648902_4513758573_#2more" linkIndex="3"/>
    <connection from="-67099789#2" to="67099789#1" fromLane="2" toLane="1" tl="cluster_11032026989_11032026990_1818648902_4513758573_#2more" linkIndex="4"/>
    <connection from="1073015936" to="-1424634884#0" fromLane="0" toLane="0" tl="cluster_4605728288_4605728802_4605728803_4605728806_#4more" linkIndex="0"/>
    <connection from="1073015936" to="47707170#3" fromLane="0" toLane="0" tl="cluster_4605728288_4605728802_4605728803_4605728806_#4more" linkIndex="1"/>
    <connection from="1073015936" to="1424634884#4" fromLane="0" toLane="0" tl="cluster_4605728288_4605728802_4605728803_4605728806_#4more" linkIndex="2"/>
    <connection from="1073015936" to="1136657264#3" fromLane="0" toLane="0" tl="cluster_4605728288_4605728802_4605728803_4605728806_#4more" linkIndex="3"/>
    <connection from="1123184404#0" to="1123184404#1" fromLane="0" toLane="0" tl="joinedS_1263283300_1263283307_1263283312_cluster_1263283302_29207822_29207827_3922677127" linkIndex="4"/>
    <connection from="1123184404#0" to="1123184404#1" fromLane="1" toLane="1" tl="joinedS_1263283300_1263283307_1263283312_cluster_1263283302_29207822_29207827_3922677127" linkIndex="5"/>
    <connection from="1123184404#0" to="1123184404#1" fromLane="2" toLane="2" tl="joinedS_1263283300_1263283307_1263283312_cluster_1263283302_29207822_29207827_3922677127" linkIndex="6"/>
    <connection from="1132167289#0" to="16374191#1" fromLane="0" toLane="0" tl="cluster_1602745846_25663747_6172769860_6172769861_#2more" linkIndex="5"/>
    <connection from="1132167289#0" to="884209962#1" fromLane="0" toLane="0" tl="cluster_1602745846_25663747_6172769860_6172769861_#2more" linkIndex="6"/>
    <connection from="1132167289#0" to="-375311155#1" fromLane="0" toLane="1" tl="cluster_1602745846_25663747_6172769860_6172769861_#2more" linkIndex="7"/>
    <connection from="1132167289#0" to="-1132167289#1" fromLane="0" toLane="0" tl="cluster_1602745846_25663747_6172769860_6172769861_#2more" linkIndex="8"/>
    <connection from="1307864984#1" to="168514765#1" fromLane="0" toLane="0" tl="joinedS_2659182539_cluster_10286920457_12150522204_13025705486_2659182536_#10more" linkIndex="9"/>
    <connection from="1307864984#1" to="1144651960" fromLane="0" toLane="0" tl="joinedS_2659182539_cluster_10286920457_12150522204_13025705486_2659182536_#10more" linkIndex="10"/>
    <connection from="1307864984#1" to="168515533#2" fromLane="0" toLane="1" tl="joinedS_2659182539_cluster_10286920457_12150522204_13025705486_2659182536_#10more" linkIndex="11"/>
    <connection from="1307864984#1" to="1228609316#1" fromLane="0" toLane="1" tl="joinedS_2659182539_cluster_10286920457_12150522204_13025705486_2659182536_#10more" linkIndex="12"/>
    <connection from="1307864984#1" to="-1307864983" fromLane="0" toLane="0" tl="joinedS_2659182539_cluster_10286920457_12150522204_13025705486_2659182536_#10more" linkIndex="13"/>
    <connection from="1424634880#3" to="47707170#3" fromLane="0" toLane="0" tl="cluster_4605728288_4605728802_4605728803_4605728806_#4more" linkIndex="12"/>
    <connection from="1424634880#3" to="1424634884#4" fromLane="0" toLane="0" tl="cluster_4605728288_4605728802_4605728803_4605728806_#4more" linkIndex="13"/>
    <connection from="1424634880#3" to="1136657264#3" fromLane="0" toLane="0" tl="cluster_4605728288_4605728802_4605728803_4605728806_#4more" linkIndex="14"/>
    <connection from="1424634880#3" to="-1424634884#0" fromLane="0" toLane="0" tl="cluster_4605728288_4605728802_4605728803_4605728806_#4more" linkIndex="15"/>
    <connection from="1426079060#1" to="110785555#1" fromLane="0" toLane="0" tl="cluster_25663395_6172767595_6172767596_6172767597_#1more" linkIndex="1"/>
    <connection from="1426079060#1" to="110785555#1" fromLane="0" toLane="1" tl="cluster_25663395_6172767595_6172767596_6172767597_#1more" linkIndex="2"/>
    <connection from="168515533#2" to="168515533#4" fromLane="0" toLane="0" tl="3922677139" linkIndex="0"/>
    <connection from="168515533#2" to="168515533#4" fromLane="1" toLane="1" tl="3922677139" linkIndex="1"/>
    <connection from="168515533#2" to="168515533#4" fromLane="2" toLane="2" tl="3922677139" linkIndex="2"/>
    <connection from="171423001#2" to="-1190781962#0" fromLane="0" toLane="0" tl="cluster_2071423335_25662916_4591015614_4591015618_#3more" linkIndex="8"/>
    <connection from="171423001#2" to="42102542#1" fromLane="0" toLane="0" tl="cluster_2071423335_25662916_4591015614_4591015618_#3more" linkIndex="9"/>
    <connection from="171423001#2" to="1190781963#1" fromLane="0" toLane="0" tl="cluster_2071423335_25662916_4591015614_4591015618_#3more" linkIndex="10"/>
    <connection from="199847247#2" to="-327462543#1" fromLane="0" toLane="0" tl="cluster_11032026989_11032026990_1818648902_4513758573_#2more" linkIndex="14"/>
    <connection from="199847247#2" to="-81113584#1" fromLane="0" toLane="0" tl="cluster_11032026989_11032026990_1818648902_4513758573_#2more" linkIndex="15"/>
    <connection from="199847247#2" to="67099789#1" fromLane="0" toLane="1" tl="cluster_11032026989_11032026990_1818648902_4513758573_#2more" linkIndex="16"/>
    <connection from="199847247#2" to="199847252#1" fromLane="0" toLane="0" tl="cluster_11032026989_11032026990_1818648902_4513758573_#2more" linkIndex="17"/>
    <connection from="199847347#1" to="199847347#2" fromLane="0" toLane="0" tl="1569108087" linkIndex="0"/>
    <connection from="233833576#0" to="-1307864983" fromLane="0" toLane="0" tl="joinedS_2659182539_cluster_10286920457_12150522204_13025705486_2659182536_#10more" linkIndex="14"/>
    <connection from="233833576#0" to="168514765#1" fromLane="0" toLane="1" tl="joinedS_2659182539_cluster_10286920457_12150522204_13025705486_2659182536_#10more" linkIndex="15"/>
    <connection from="233833576#0" to="1144651960" fromLane="1" toLane="0" tl="joinedS_2659182539_cluster_10286920457_12150522204_13025705486_2659182536_#10more" linkIndex="16"/>
    <connection from="233833576#0" to="168515533#2" fromLane="2" toLane="2" tl="joinedS_2659182539_cluster_10286920457_12150522204_13025705486_2659182536_#10more" linkIndex="17"/>
    <connection from="233833576#0" to="1228609316#1" fromLane="2" toLane="1" tl="joinedS_2659182539_cluster_10286920457_12150522204_13025705486_2659182536_#10more" linkIndex="18"/>
    <connection from="23755950" to="-1423958088#0" fromLane="0" toLane="0" tl="cluster_160514854_4177965507_4177965512" linkIndex="6"/>
    <connection from="23755950" to="1423958087" fromLane="0" toLane="0" tl="cluster_160514854_4177965507_4177965512" linkIndex="7"/>
    <connection from="23755950" to="-1423958086#0" fromLane="0" toLane="0" tl="cluster_160514854_4177965507_4177965512" linkIndex="8"/>
    <connection from="292429056" to="42102542#1" fromLane="0" toLane="0" tl="cluster_2071423335_25662916_4591015614_4591015618_#3more" linkIndex="4"/>
    <connection from="292429056" to="1190781963#1" fromLane="0" toLane="0" tl="cluster_2071423335_25662916_4591015614_4591015618_#3more" linkIndex="5"/>
    <connection from="292429056" to="196850609#0" fromLane="0" toLane="0" tl="cluster_2071423335_25662916_4591015614_4591015618_#3more" linkIndex="6"/>
    <connection from="292429056" to="-1190781962#0" fromLane="0" toLane="0" tl="cluster_2071423335_25662916_4591015614_4591015618_#3more" linkIndex="7"/>
    <connection from="295255796#0" to="295255796#1" fromLane="0" toLane="0" tl="2182805371" linkIndex="0"/>
    <connection from="327462543#0" to="-81113584#1" fromLane="0" toLane="0" tl="cluster_11032026989_11032026990_1818648902_4513758573_#2more" linkIndex="9"/>
    <connection from="327462543#0" to="67099789#1" fromLane="0" toLane="0" tl="cluster_11032026989_11032026990_1818648902_4513758573_#2more" linkIndex="10"/>
    <connection from="327462543#0" to="67099789#1" fromLane="1" toLane="1" tl="cluster_11032026989_11032026990_1818648902_4513758573_#2more" linkIndex="11"/>
    <connection from="327462543#0" to="199847252#1" fromLane="2" toLane="0" tl="cluster_11032026989_11032026990_1818648902_4513758573_#2more" linkIndex="12"/>
    <connection from="327462543#0" to="-327462543#1" fromLane="2" toLane="1" tl="cluster_11032026989_11032026990_1818648902_4513758573_#2more" linkIndex="13"/>
    <connection from="35557143#3" to="22972473#1" fromLane="0" toLane="0" tl="cluster_25662710_5984014360_5984014361_5984014362_#1more" linkIndex="0"/>
    <connection from="35557143#3" to="1426897598#3" fromLane="0" toLane="0" tl="cluster_25662710_5984014360_5984014361_5984014362_#1more" linkIndex="1"/>
    <connection from="35557143#3" to="243854725#1" fromLane="0" toLane="0" tl="cluster_25662710_5984014360_5984014361_5984014362_#1more" linkIndex="2"/>
    <connection from="35557143#3" to="-1426897598#0" fromLane="0" toLane="0" tl="cluster_25662710_5984014360_5984014361_5984014362_#1more" linkIndex="3"/>
    <connection from="371296399#1" to="168515533#2" fromLane="0" toLane="0" tl="joinedS_2659182539_cluster_10286920457_12150522204_13025705486_2659182536_#10more" linkIndex="25"/>
    <connection from="371296399#1" to="1228609316#1" fromLane="0" toLane="0" tl="joinedS_2659182539_cluster_10286920457_12150522204_13025705486_2659182536_#10more" linkIndex="26"/>
    <connection from="371296399#1" to="1228609316#1" fromLane="0" toLane="1" tl="joinedS_2659182539_cluster_10286920457_12150522204_13025705486_2659182536_#10more" linkIndex="27"/>
    <connection from="371296399#1" to="168514765#1" fromLane="0" toLane="2" tl="joinedS_2659182539_cluster_10286920457_12150522204_13025705486_2659182536_#10more" linkIndex="28"/>
    <connection from="371296399#1" to="1144651960" fromLane="0" toLane="0" tl="joinedS_2659182539_cluster_10286920457_12150522204_13025705486_2659182536_#10more" linkIndex="29"/>
    <connection from="375311154#1" to="375311154#3" fromLane="0" toLane="0" tl="3922677124" linkIndex="0"/>
    <connection from="375311154#1" to="375311154#3" fromLane="1" toLane="1" tl="3922677124" linkIndex="1"/>
    <connection from="375311154#1" to="375311154#3" fromLane="2" toLane="2" tl="3922677124" linkIndex="2"/>
    <connection from="375311155#0" to="-1132167289#1" fromLane="0" toLane="0" tl="cluster_1602745846_25663747_6172769860_6172769861_#2more" linkIndex="9"/>
    <connection from="375311155#0" to="16374191#1" fromLane="0" toLane="0" tl="cluster_1602745846_25663747_6172769860_6172769861_#2more" linkIndex="10"/>
    <connection from="375311155#0" to="16374191#1" fromLane="1" toLane="1" tl="cluster_1602745846_25663747_6172769860_6172769861_#2more" linkIndex="11"/>
    <connection from="375311155#0" to="884209962#1" fromLane="2" toLane="0" tl="cluster_1602745846_25663747_6172769860_6172769861_#2more" linkIndex="12"/>
    <connection from="375311155#0" to="-375311155#1" fromLane="2" toLane="1" tl="cluster_1602745846_25663747_6172769860_6172769861_#2more" linkIndex="13"/>
    <connection from="375311156#0" to="375311156#2" fromLane="0" toLane="0" tl="joinedS_1263283300_1263283307_1263283312_cluster_1263283302_29207822_29207827_3922677127" linkIndex="7"/>
    <connection from="375311156#0" to="375311156#2" fromLane="1" toLane="1" tl="joinedS_1263283300_1263283307_1263283312_cluster_1263283302_29207822_29207827_3922677127" linkIndex="8"/>
    <connection from="375311156#0" to="375311156#2" fromLane="2" toLane="2" tl="joinedS_1263283300_1263283307_1263283312_cluster_1263283302_29207822_29207827_3922677127" linkIndex="9"/>
    <connection from="375311156#0" to="375311156#2" fromLane="3" toLane="3" tl="joinedS_1263283300_1263283307_1263283312_cluster_1263283302_29207822_29207827_3922677127" linkIndex="10"/>
    <connection from="375311156#2" to="1123184404#0" fromLane="0" toLane="0" tl="joinedS_1263283300_1263283307_1263283312_cluster_1263283302_29207822_29207827_3922677127" linkIndex="16"/>
    <connection from="375311156#2" to="1123184404#0" fromLane="1" toLane="1" tl="joinedS_1263283300_1263283307_1263283312_cluster_1263283302_29207822_29207827_3922677127" linkIndex="17"/>
    <connection from="375311156#2" to="1123184404#0" fromLane="2" toLane="2" tl="joinedS_1263283300_1263283307_1263283312_cluster_1263283302_29207822_29207827_3922677127" linkIndex="18"/>
    <connection from="375311156#2" to="-1426120123#0" fromLane="3" toLane="0" tl="joinedS_1263283300_1263283307_1263283312_cluster_1263283302_29207822_29207827_3922677127" linkIndex="19"/>
    <connection from="375311156#2" to="110786129#1" fromLane="3" toLane="2" tl="joinedS_1263283300_1263283307_1263283312_cluster_1263283302_29207822_29207827_3922677127" linkIndex="20"/>
    <connection from="375311157#0" to="884209962#1" fromLane="0" toLane="0" tl="cluster_1602745846_25663747_6172769860_6172769861_#2more" linkIndex="0"/>
    <connection from="375311157#0" to="-375311155#1" fromLane="1" toLane="0" tl="cluster_1602745846_25663747_6172769860_6172769861_#2more" linkIndex="1"/>
    <connection from="375311157#0" to="-375311155#1" fromLane="2" toLane="1" tl="cluster_1602745846_25663747_6172769860_6172769861_#2more" linkIndex="2"/>
    <connection from="375311157#0" to="-1132167289#1" fromLane="3" toLane="0" tl="cluster_1602745846_25663747_6172769860_6172769861_#2more" linkIndex="3"/>
    <connection from="375311157#0" to="16374191#1" fromLane="3" toLane="1" tl="cluster_1602745846_25663747_6172769860_6172769861_#2more" linkIndex="4"/>
    <connection from="375311158#1" to="110786129#1" fromLane="0" toLane="0" tl="joinedS_1263283300_1263283307_1263283312_cluster_1263283302_29207822_29207827_3922677127" linkIndex="21"/>
    <connection from="375311158#1" to="1123184404#0" fromLane="1" toLane="1" tl="joinedS_1263283300_1263283307_1263283312_cluster_1263283302_29207822_29207827_3922677127" linkIndex="22"/>
    <connection from="375311158#1" to="1123184404#0" fromLane="1" toLane="2" tl="joinedS_1263283300_1263283307_1263283312_cluster_1263283302_29207822_29207827_3922677127" linkIndex="23"/>
    <connection from="375311158#1" to="-1426120123#0" fromLane="1" toLane="0" tl="joinedS_1263283300_1263283307_1263283312_cluster_1263283302_29207822_29207827_3922677127" linkIndex="24"/>
    <connection from="375312063#0" to="375312063#2" fromLane="0" toLane="0" tl="joinedS_1263283300_1263283307_1263283312_cluster_1263283302_29207822_29207827_3922677127" linkIndex="0"/>
    <connection from="375312063#0" to="375312063#2" fromLane="1" toLane="1" tl="joinedS_1263283300_1263283307_1263283312_cluster_1263283302_29207822_29207827_3922677127" linkIndex="1"/>
    <connection from="375312063#0" to="375312063#2" fromLane="2" toLane="2" tl="joinedS_1263283300_1263283307_1263283312_cluster_1263283302_29207822_29207827_3922677127" linkIndex="2"/>
    <connection from="375312063#0" to="375312063#2" fromLane="3" toLane="3" tl="joinedS_1263283300_1263283307_1263283312_cluster_1263283302_29207822_29207827_3922677127" linkIndex="3"/>
    <connection from="375312063#2" to="-1426120123#0" fromLane="0" toLane="0" tl="joinedS_1263283300_1263283307_1263283312_cluster_1263283302_29207822_29207827_3922677127" linkIndex="11"/>
    <connection from="375312063#2" to="110786129#1" fromLane="0" toLane="0" tl="joinedS_1263283300_1263283307_1263283312_cluster_1263283302_29207822_29207827_3922677127" linkIndex="12"/>
    <connection from="375312063#2" to="110786129#1" fromLane="1" toLane="1" tl="joinedS_1263283300_1263283307_1263283312_cluster_1263283302_29207822_29207827_3922677127" linkIndex="13"/>
    <connection from="375312063#2" to="110786129#1" fromLane="2" toLane="2" tl="joinedS_1263283300_1263283307_1263283312_cluster_1263283302_29207822_29207827_3922677127" linkIndex="14"/>
    <connection from="375312063#2" to="1123184404#0" fromLane="3" toLane="2" tl="joinedS_1263283300_1263283307_1263283312_cluster_1263283302_29207822_29207827_3922677127" linkIndex="15"/>
    <connection from="391559412" to="207993050" fromLane="0" toLane="0" tl="2182805373" linkIndex="0"/>
    <connection from="4611722#1" to="4611722#3" fromLane="0" toLane="0" tl="joinedS_2659182539_cluster_10286920457_12150522204_13025705486_2659182536_#10more" linkIndex="0"/>
    <connection from="4611722#1" to="4611722#3" fromLane="1" toLane="1" tl="joinedS_2659182539_cluster_10286920457_12150522204_13025705486_2659182536_#10more" linkIndex="1"/>
    <connection from="4611722#1" to="4611722#3" fromLane="2" toLane="2" tl="joinedS_2659182539_cluster_10286920457_12150522204_13025705486_2659182536_#10more" linkIndex="2"/>
    <connection from="4611722#3" to="1144651960" fromLane="0" toLane="0" tl="joinedS_2659182539_cluster_10286920457_12150522204_13025705486_2659182536_#10more" linkIndex="3"/>
    <connection from="4611722#3" to="168515533#2" fromLane="0" toLane="0" tl="joinedS_2659182539_cluster_10286920457_12150522204_13025705486_2659182536_#10more" linkIndex="4"/>
    <connection from="4611722#3" to="168515533#2" fromLane="1" toLane="1" tl="joinedS_2659182539_cluster_10286920457_12150522204_13025705486_2659182536_#10more" linkIndex="5"/>
    <connection from="4611722#3" to="168515533#2" fromLane="2" toLane="2" tl="joinedS_2659182539_cluster_10286920457_12150522204_13025705486_2659182536_#10more" linkIndex="6"/>
    <connection from="4611722#3" to="1228609316#1" fromLane="2" toLane="1" tl="joinedS_2659182539_cluster_10286920457_12150522204_13025705486_2659182536_#10more" linkIndex="7"/>
    <connection from="4611722#3" to="168514765#1" fromLane="2" toLane="2" tl="joinedS_2659182539_cluster_10286920457_12150522204_13025705486_2659182536_#10more" linkIndex="8"/>
    <connection from="47707171#2" to="1424634884#4" fromLane="0" toLane="0" tl="cluster_4605728288_4605728802_4605728803_4605728806_#4more" linkIndex="8"/>
    <connection from="47707171#2" to="1136657264#3" fromLane="0" toLane="0" tl="cluster_4605728288_4605728802_4605728803_4605728806_#4more" linkIndex="9"/>
    <connection from="47707171#2" to="-1424634884#0" fromLane="0" toLane="0" tl="cluster_4605728288_4605728802_4605728803_4605728806_#4more" linkIndex="10"/>
    <connection from="47707171#2" to="47707170#3" fromLane="0" toLane="0" tl="cluster_4605728288_4605728802_4605728803_4605728806_#4more" linkIndex="11"/>
    <connection from="541763977#1" to="1228609316#1" fromLane="0" toLane="0" tl="joinedS_2659182539_cluster_10286920457_12150522204_13025705486_2659182536_#10more" linkIndex="19"/>
    <connection from="541763977#1" to="168514765#1" fromLane="0" toLane="0" tl="joinedS_2659182539_cluster_10286920457_12150522204_13025705486_2659182536_#10more" linkIndex="20"/>
    <connection from="541763977#1" to="168514765#1" fromLane="1" toLane="1" tl="joinedS_2659182539_cluster_10286920457_12150522204_13025705486_2659182536_#10more" linkIndex="21"/>
    <connection from="541763977#1" to="168514765#1" fromLane="2" toLane="2" tl="joinedS_2659182539_cluster_10286920457_12150522204_13025705486_2659182536_#10more" linkIndex="22"/>
    <connection from="541763977#1" to="1144651960" fromLane="2" toLane="0" tl="joinedS_2659182539_cluster_10286920457_12150522204_13025705486_2659182536_#10more" linkIndex="23"/>
    <connection from="541763977#1" to="168515533#2" fromLane="2" toLane="2" tl="joinedS_2659182539_cluster_10286920457_12150522204_13025705486_2659182536_#10more" linkIndex="24"/>
    <connection from="81113584#0" to="67099789#1" fromLane="0" toLane="0" tl="cluster_11032026989_11032026990_1818648902_4513758573_#2more" linkIndex="5"/>
    <connection from="81113584#0" to="199847252#1" fromLane="0" toLane="0" tl="cluster_11032026989_11032026990_1818648902_4513758573_#2more" linkIndex="6"/>
    <connection from="81113584#0" to="-327462543#1" fromLane="1" toLane="1" tl="cluster_11032026989_11032026990_1818648902_4513758573_#2more" linkIndex="7"/>
    <connection from="81113584#0" to="-81113584#1" fromLane="1" toLane="0" tl="cluster_11032026989_11032026990_1818648902_4513758573_#2more" linkIndex="8"/>