<?xml version="1.0" encoding="UTF-8"?>

<!-- generated on 2025-11-09 14:10:23 by Eclipse SUMO netconvert Version 1.20.0
<configuration xmlns:xsi="http://www.w3.org/2001/XMLSchema-instance" xsi:noNamespaceSchemaLocation="http://sumo.dlr.de/xsd/netconvertConfiguration.xsd">

    <input>
        <sumo-net-file value="osm.net.xml.gz"/>
    </input>

    <output>
        <plain-output-prefix value="plain"/>
        <output.street-names value="true"/>
    </output>

    <processing>
        <geometry.min-radius.fix.railways value="false"/>
        <geometry.max-grade.fix value="false"/>
        <offset.disable-normalization value="true"/>
        <lefthand value="0"/>
    </processing>

    <junctions>
        <no-turnarounds value="true"/>
        <junctions.corner-detail value="5"/>
        <junctions.limit-turn-speed value="5.50"/>
        <rectangular-lane-cut value="0"/>
    </junctions>

    <pedestrian>
        <walkingareas value="0"/>
    </pedestrian>

</configuration>
-->

<edges version="1.20" xmlns:xsi="http://www.w3.org/2001/XMLSchema-instance" xsi:noNamespaceSchemaLocation="http://sumo.dlr.de/xsd/edges_file.xsd">
    <location netOffset="-390540.64,-5818976.29" convBoundary="0.00,0.00,1016.33,611.35" origBoundary="13.387099,52.510081,13.402011,52.515434" projParameter="+proj=utm +zone=33 +ellps=WGS84 +datum=WGS84 +units=m +no_defs"/>

    <edge id="-1009114665#0" from="13056832743" to="cluster_11449182316_13056832747_266540994" name="Niederwallstraße" priority="3" type="highway.residential" numLanes="1" speed="8.33" shape="946.04,175.40 943.01,177.56" disallow="tram rail_urban rail rail_electric rail_fast ship container cable_car subway aircraft wheelchair scooter drone">
        <lane index="0">
            <param key="origId" value="1009114665"/>
        </lane>
        <param key="origTo" value="266540994"/>
    </edge>
    <edge id="-1009114665#1" from="cluster_11094268001_13056832729_3748722441_3748722442" to="13056832743" name="Niederwallstraße" priority="3" type="highway.residential" numLanes="1" speed="8.33" shape="952.53,170.80 946.90,174.80 946.04,175.40" disallow="tram rail_urban rail rail_electric rail_fast ship container cable_car subway aircraft wheelchair scooter drone">
        <lane index="0">
            <param key="origId" value="1009114665"/>
        </lane>
        <param key="origFrom" value="3748722442"/>
    </edge>
    <edge id="-1009114665#2" from="cluster_11094466171_4451098200_9310759544" to="cluster_11094268001_13056832729_3748722441_3748722442" name="Niederwallstraße" priority="3" type="highway.residential" numLanes="1" speed="8.33" shape="973.26,155.63 971.71,157.16 952.53,170.80" disallow="tram rail_urban rail rail_electric rail_fast ship container cable_car subway aircraft wheelchair scooter drone">
        <lane index="0">
            <param key="origId" value="1009114665"/>
        </lane>
        <param key="origFrom" value="11094466171"/>
        <param key="origTo" value="3748722442"/>
    </edge>
    <edge id="-104428005#0" from="12917712128" to="1204940509" priority="1" type="highway.service" numLanes="1" speed="2.78" allow="pedestrian delivery bicycle">
        <lane index="0">
            <param key="origId" value="104428005"/>
        </lane>
    </edge>
    <edge id="-105747086#0" from="11395414119" to="12917712128" priority="1" type="highway.service" numLanes="1" speed="2.78" shape="430.54,240.35 427.71,240.11 398.80,237.88 396.27,246.34 395.93,249.06" allow="pedestrian delivery bicycle">
        <lane index="0">
            <param key="origId" value="105747086 105747085 104428005"/>
        </lane>
    </edge>
    <edge id="-105747086#1" from="1204940520" to="11395414119" priority="1" type="highway.service" numLanes="1" speed="2.78" allow="pedestrian delivery bicycle">
        <lane index="0">
            <param key="origId" value="105747086"/>
        </lane>
    </edge>
    <edge id="-1073015940#0" from="cluster_10286992733_10286992734_10286992735_10286992736_#1more" to="11395414105" name="Kronenstraße" priority="3" type="highway.residential" numLanes="1" speed="8.33" shape="322.67,150.72 325.57,150.53 368.07,153.90 373.79,154.81" disallow="pedestrian tram rail_urban rail rail_electric rail_fast ship container cable_car subway aircraft wheelchair scooter drone">
        <lane index="0">
            <param key="origId" value="1073015940 375459782 1151333057"/>
        </lane>
        <param key="origFrom" value="10286992733"/>
    </edge>
    <edge id="-1086959492" from="29207849" to="237258233" name="Oberwasserstraße" priority="1" type="highway.pedestrian" numLanes="1" speed="8.33" width="2.00" allow="pedestrian">
        <lane index="0">
            <param key="origId" value="1086959492"/>
        </lane>
    </edge>
    <edge id="-1105574289#1" from="1204940520" to="cluster_11395414116_11395414118_12917712134_283039347" name="Markgrafenstraße" priority="3" type="highway.residential" numLanes="1" speed="8.33" shape="438.61,241.02 437.69,252.47" disallow="pedestrian tram rail_urban rail rail_electric rail_fast ship container cable_car subway aircraft wheelchair scooter drone">
        <lane index="0">
            <param key="origId" value="1105574289"/>
        </lane>
        <param key="origTo" value="12917712134"/>
    </edge>
    <edge id="-1124910114#0" from="11395407294" to="10286992714" priority="1" type="highway.service" numLanes="1" speed="5.56" allow="pedestrian delivery bicycle">
        <lane index="0">
            <param key="origId" value="1124910114"/>
        </lane>
    </edge>
    <edge id="-1124910114#1" from="10286992715" to="11395407294" priority="1" type="highway.service" numLanes="1" speed="5.56" shape="317.70,101.56 311.97,101.06 309.69,100.85" allow="pedestrian delivery bicycle">
        <lane index="0">
            <param key="origId" value="1124910114"/>
        </lane>
    </edge>
    <edge id="-1124910119#0" from="11395407295" to="10286992743" priority="1" type="highway.service" numLanes="1" speed="5.56" allow="pedestrian delivery bicycle">
        <lane index="0">
            <param key="origId" value="1124910119"/>
        </lane>
    </edge>
    <edge id="-1124910119#1" from="10286992744" to="11395407295" priority="1" type="highway.service" numLanes="1" speed="5.56" shape="309.46,212.82 303.21,212.21 300.79,211.96" allow="pedestrian delivery bicycle">
        <lane index="0">
            <param key="origId" value="1124910119"/>
        </lane>
    </edge>
    <edge id="-1127602092#0" from="cluster_13115409276_545036879" to="cluster_13110996232_13115329788_13115347111_13285300586_#1more" name="Jägerstraße" priority="3" type="highway.residential" numLanes="1" speed="8.33" shape="729.60,502.84 724.87,500.59 684.59,481.55 683.08,481.24" disallow="tram rail_urban rail rail_electric rail_fast ship container cable_car subway aircraft wheelchair scooter drone">
        <lane index="0">
            <param key="origId" value="1127602092 1105574290 1426727707"/>
        </lane>
        <param key="origFrom" value="545036879"/>
        <param key="origTo" value="13115329788"/>
    </edge>
    <edge id="-1127602092#1" from="cluster_13115409286_3922684684_3922684691" to="cluster_13115409276_545036879" name="Jägerstraße" priority="3" type="highway.residential" numLanes="1" speed="8.33" shape="759.10,516.78 757.47,516.01 729.60,502.84" disallow="tram rail_urban rail rail_electric rail_fast ship container cable_car subway aircraft wheelchair scooter drone">
        <lane index="0">
            <param key="origId" value="1127602092"/>
        </lane>
        <param key="origFrom" value="3922684684"/>
        <param key="origTo" value="545036879"/>
    </edge>
    <edge id="-1127602336#1" from="5190500376" to="cluster_11395370970_11395370972_13116912947_13116912948_#1more" name="Werderscher Markt" priority="10" type="highway.tertiary" numLanes="1" speed="13.89" shape="712.84,587.17 704.71,585.06 696.38,582.89 691.96,581.74 687.51,580.73 681.92,579.81 678.78,579.42 675.76,579.09 672.78,578.82" disallow="tram rail_urban rail rail_electric rail_fast ship container cable_car subway aircraft wheelchair scooter drone">
        <lane index="0">
            <param key="origId" value="1127602336"/>
        </lane>
        <param key="origTo" value="13116912948"/>
    </edge>
    <edge id="-1132162834#0" from="cluster_10286992778_10286992779_10286992780_283039340_#1more" to="cluster_10287205952_11395407322_25662928_9028640260" name="Jägerstraße" priority="3" type="highway.residential" numLanes="1" speed="8.33" shape="282.47,447.94 280.96,447.81 212.34,442.23 170.59,438.83 168.77,438.78" disallow="pedestrian tram rail_urban rail rail_electric rail_fast ship container cable_car subway aircraft wheelchair scooter drone">
        <lane index="0">
            <param key="origId" value="1132162834 1136657257 840229275"/>
        </lane>
        <param key="origFrom" value="10286992778"/>
        <param key="origTo" value="10287205952"/>
    </edge>
    <edge id="-1132164863" from="1818648896" to="cluster_25663395_6172767595_6172767596_6172767597_#1more" name="Leipziger Straße" priority="12" type="highway.primary" numLanes="2" speed="8.33" shape="131.11,41.26 59.57,35.68 36.55,33.89 32.09,33.55" disallow="pedestrian tram rail_urban rail rail_electric rail_fast ship container cable_car subway aircraft wheelchair scooter drone">
        <lane index="0">
            <param key="origId" value="1132164863 110785555 110785555"/>
        </lane>
        <lane index="1">
            <param key="origId" value="1132164863 110785555 110785555"/>
        </lane>
        <param key="origTo" value="6172767597"/>
        <param key="ref" value="B 1"/>
    </edge>
    <edge id="-1132164893#0" from="cluster_25663395_6172767595_6172767596_6172767597_#1more" to="8788859099" name="Mauerstraße" priority="10" type="highway.tertiary" numLanes="1" speed="13.89" shape="12.29,44.82 9.84,49.12 7.46,53.49" disallow="pedestrian tram rail_urban rail rail_electric rail_fast ship container cable_car subway aircraft wheelchair scooter drone">
        <lane index="0">
            <param key="origId" value="1132164893 1426079060"/>
        </lane>
        <param key="origFrom" value="6172767596"/>
    </edge>
    <edge id="-1132167289#1" from="cluster_1602745846_25663747_6172769860_6172769861_#2more" to="10556649726" name="Charlottenstraße" priority="3" type="highway.residential" numLanes="1" speed="8.33" shape="321.94,42.71 322.10,39.94 322.21,38.06 322.53,33.78" disallow="pedestrian tram rail_urban rail rail_electric rail_fast ship container cable_car subway aircraft wheelchair scooter drone">
        <lane index="0">
            <param key="origId" value="1132167289"/>
        </lane>
        <param key="origFrom" value="6172769861"/>
    </edge>
    <edge id="-1136657259#0" from="cluster_10287240224_10287240225_11395358753_11395358756_#1more" to="3792738020" name="Taubenstraße" priority="3" type="highway.residential" numLanes="1" speed="8.33" shape="158.38,339.80 156.97,339.72 90.87,334.28" disallow="pedestrian tram rail_urban rail rail_electric rail_fast ship container cable_car subway aircraft wheelchair scooter drone">
        <lane index="0">
            <param key="origId" value="1136657259 4588222"/>
        </lane>
        <param key="origFrom" value="10287240225"/>
    </edge>
    <edge id="-1136657266" from="2448311565" to="cluster_11392047340_25663154_7840422614_7840422615" name="Kronenstraße" priority="3" type="highway.residential" numLanes="1" speed="8.33" shape="103.80,136.67 171.41,142.09 173.47,142.26" disallow="pedestrian tram rail_urban rail rail_electric rail_fast ship container cable_car subway aircraft wheelchair scooter drone">
        <lane index="0">
            <param key="origId" value="1136657266 665241888"/>
        </lane>
        <param key="origTo" value="7840422615"/>
    </edge>
    <edge id="-1149365726#0" from="11395407314" to="10692552894" priority="1" type="highway.service" numLanes="1" speed="5.56" allow="pedestrian delivery bicycle">
        <lane index="0">
            <param key="origId" value="1149365726"/>
        </lane>
    </edge>
    <edge id="-1149365726#1" from="cluster_10286992740_10692552892_10692552893" to="11395407314" priority="1" type="highway.service" numLanes="1" speed="5.56" shape="312.27,174.83 318.22,175.21 321.04,175.38" allow="pedestrian delivery bicycle">
        <lane index="0">
            <param key="origId" value="1149365726"/>
        </lane>
        <param key="origFrom" value="10692552893"/>
    </edge>
    <edge id="-1151333056" from="cluster_13110523696_13110887333_29207839" to="29207838" name="Hausvogteiplatz" priority="3" type="highway.residential" numLanes="1" speed="8.33" shape="627.70,353.73 619.90,356.50 583.50,369.76" disallow="tram rail_urban rail rail_electric rail_fast ship container cable_car subway aircraft wheelchair scooter drone">
        <lane index="0">
            <param key="origId" value="1151333056"/>
        </lane>
        <param key="origFrom" value="29207839"/>
    </edge>
    <edge id="-1151333057#1" from="11395414105" to="cluster_1041979356_11395414087_11395414102" name="Kronenstraße" priority="3" type="highway.residential" numLanes="1" speed="8.33" shape="373.79,154.81 391.58,157.63" disallow="pedestrian tram rail_urban rail rail_electric rail_fast ship container cable_car subway aircraft wheelchair scooter drone">
        <lane index="0">
            <param key="origId" value="1151333057"/>
        </lane>
        <param key="origTo" value="11395414102"/>
    </edge>
    <edge id="-1151333058#0" from="11395414115" to="cluster_11395414086_11395414089_11395414112_25663150" name="Kronenstraße" priority="3" type="highway.residential" numLanes="1" speed="8.33" shape="435.63,161.65 444.96,162.32" disallow="pedestrian tram rail_urban rail rail_electric rail_fast ship container cable_car subway aircraft wheelchair scooter drone">
        <lane index="0">
            <param key="origId" value="1151333058"/>
        </lane>
        <param key="origTo" value="25663150"/>
    </edge>
    <edge id="-1151333058#1" from="cluster_1041979356_11395414087_11395414102" to="11395414115" name="Kronenstraße" priority="3" type="highway.residential" numLanes="1" speed="8.33" shape="398.43,158.72 435.63,161.65" disallow="pedestrian tram rail_urban rail rail_electric rail_fast ship container cable_car subway aircraft wheelchair scooter drone">
        <lane index="0">
            <param key="origId" value="1151333058"/>
        </lane>
        <param key="origFrom" value="1041979356"/>
    </edge>
    <edge id="-1159149106#0" from="cluster_11395370970_11395370972_13116912947_13116912948_#1more" to="11662686686" name="Oberwallstraße" priority="3" type="highway.residential" numLanes="1" speed="8.33" shape="666.64,587.32 666.07,591.82" disallow="tram rail_urban rail rail_electric rail_fast ship container cable_car subway aircraft wheelchair scooter drone">
        <lane index="0">
            <param key="origId" value="1159149106"/>
        </lane>
        <param key="origFrom" value="11395370972"/>
    </edge>
    <edge id="-1163350372#0" from="266540996" to="cluster_266540993_3922685080" name="Kurstraße" priority="3" type="highway.residential" numLanes="1" speed="8.33" shape="941.35,274.79 907.40,299.24 883.79,316.09" allow="emergency authority bus bicycle">
        <lane index="0">
            <param key="origId" value="1163350372"/>
        </lane>
        <param key="origTo" value="266540993"/>
    </edge>
    <edge id="-1163350372#1" from="1986489455" to="266540996" name="Kurstraße" priority="3" type="highway.residential" numLanes="1" speed="8.33" allow="emergency authority bus bicycle">
        <lane index="0">
            <param key="origId" value="1163350372"/>
        </lane>
    </edge>
    <edge id="-1163350372#2" from="cluster_13088745204_13088745205_3168358968" to="1986489455" name="Kurstraße" priority="3" type="highway.residential" numLanes="1" speed="8.33" shape="988.49,240.83 970.10,254.17" allow="emergency authority bus bicycle">
        <lane index="0">
            <param key="origId" value="1163350372"/>
        </lane>
        <param key="origFrom" value="3168358968"/>
    </edge>
    <edge id="-1171262820#0" from="11395330945" to="10884008276" priority="1" type="highway.service" numLanes="1" speed="2.78" allow="pedestrian delivery bicycle">
        <lane index="0">
            <param key="origId" value="1171262820"/>
        </lane>
    </edge>
    <edge id="-1171262820#1" from="cluster_10884008277_10884008279" to="11395330945" priority="1" type="highway.service" numLanes="1" speed="2.78" shape="222.68,542.57 222.13,548.97 222.00,550.47" allow="pedestrian delivery bicycle">
        <lane index="0">
            <param key="origId" value="1171262820"/>
        </lane>
        <param key="origFrom" value="10884008277"/>
    </edge>
    <edge id="-1171262821#0" from="11395330946" to="10884008278" priority="1" type="highway.service" numLanes="1" speed="5.56" allow="pedestrian delivery bicycle">
        <lane index="0">
            <param key="origId" value="1171262821"/>
        </lane>
    </edge>
    <edge id="-1171262821#1" from="cluster_10884008277_10884008279" to="11395330946" priority="1" type="highway.service" numLanes="1" speed="5.56" shape="229.28,543.11 229.91,536.52 230.09,534.63" allow="pedestrian delivery bicycle">
        <lane index="0">
            <param key="origId" value="1171262821"/>
        </lane>
        <param key="origFrom" value="10884008279"/>
    </edge>
    <edge id="-1171262822#0" from="11395330965" to="10884008280" priority="1" type="highway.service" numLanes="1" speed="5.56" allow="pedestrian delivery bicycle">
        <lane index="0">
            <param key="origId" value="1171262822"/>
        </lane>
    </edge>
    <edge id="-1171262822#1" from="10884008281" to="11395330965" priority="1" type="highway.service" numLanes="1" speed="5.56" shape="249.34,544.78 249.96,538.12 250.15,536.16" allow="pedestrian delivery bicycle">
        <lane index="0">
            <param key="origId" value="1171262822"/>
        </lane>
    </edge>
    <edge id="-1178379945#0" from="10946836050" to="10946836052" priority="1" type="highway.service" numLanes="1" speed="5.56" shape="792.60,509.90 780.68,505.84 776.39,504.46" allow="pedestrian delivery bicycle">
        <lane index="0">
            <param key="origId" value="1178379945"/>
        </lane>
    </edge>
    <edge id="-1178379945#1" from="10946836051" to="10946836050" priority="1" type="highway.service" numLanes="1" speed="5.56" allow="pedestrian delivery bicycle">
        <lane index="0">
            <param key="origId" value="1178379945"/>
        </lane>
    </edge>
    <edge id="-1178379945#2" from="10946836053" to="10946836051" priority="1" type="highway.service" numLanes="1" speed="5.56" allow="pedestrian delivery bicycle">
        <lane index="0">
            <param key="origId" value="1178379945"/>
        </lane>
    </edge>
    <edge id="-1187575246" from="11027489744" to="10287240230" name="Anton-Wilhelm-Amo-Straße" priority="3" type="highway.residential" numLanes="1" speed="8.33" shape="109.47,236.30 116.25,236.85 123.76,237.45" disallow="pedestrian tram rail_urban rail rail_electric rail_fast ship container cable_car subway aircraft wheelchair scooter drone">
        <lane index="0">
            <param key="origId" value="1187575246"/>
        </lane>
    </edge>
    <edge id="-1187575247#0" from="11392047344" to="11027489745" priority="1" type="highway.service" numLanes="1" speed="5.56" allow="pedestrian delivery bicycle">
        <lane index="0">
            <param key="origId" value="1187575247"/>
        </lane>
    </edge>
    <edge id="-1187575247#1" from="11027489744" to="11392047344" priority="1" type="highway.service" numLanes="1" speed="5.56" shape="109.47,236.30 109.96,230.54 110.19,227.80" allow="pedestrian delivery bicycle">
        <lane index="0">
            <param key="origId" value="1187575247"/>
        </lane>
    </edge>
    <edge id="-1187575252#0" from="11392047348" to="11027489760" priority="1" type="highway.service" numLanes="1" speed="5.56" allow="pedestrian delivery bicycle">
        <lane index="0">
            <param key="origId" value="1187575252"/>
        </lane>
    </edge>
    <edge id="-1187575252#1" from="11027489759" to="11392047348" priority="1" type="highway.service" numLanes="1" speed="5.56" shape="48.81,231.39 48.29,237.86 48.05,240.88" allow="pedestrian delivery bicycle">
        <lane index="0">
            <param key="origId" value="1187575252"/>
        </lane>
    </edge>
    <edge id="-1190781962#0" from="cluster_2071423335_25662916_4591015614_4591015618_#3more" to="7589514177" name="Französische Straße" priority="10" type="highway.tertiary" numLanes="1" speed="8.33" shape="141.91,535.95 138.14,535.64 111.47,533.49" disallow="pedestrian tram rail_urban rail rail_electric rail_fast ship container cable_car subway aircraft wheelchair scooter drone">
        <lane index="0">
            <param key="origId" value="1190781962 292429056"/>
        </lane>
        <param key="origFrom" value="4591015614"/>
    </edge>
    <edge id="-1190781965" from="2071423333" to="cluster_2071423335_25662916_4591015614_4591015618_#3more" name="Friedrichstraße" priority="10" type="highway.tertiary" numLanes="1" speed="13.89" shape="154.81,506.24 154.72,507.37 153.63,522.01 153.49,523.53 153.26,525.93" disallow="pedestrian tram rail_urban rail rail_electric rail_fast ship container cable_car subway aircraft wheelchair scooter drone">
        <lane index="0">
            <param key="origId" value="1190781965 42102542"/>
        </lane>
        <param key="origTo" value="4591015618"/>
    </edge>
    <edge id="-1195383150#2" from="702049445" to="cluster_13088745204_13088745205_3168358968" name="Kurstraße" priority="3" type="highway.residential" numLanes="1" speed="8.33" shape="1016.33,220.69 1000.67,232.06 995.16,236.03 994.39,236.58" disallow="tram rail_urban rail rail_electric rail_fast ship container cable_car subway aircraft wheelchair scooter drone">
        <lane index="0">
            <param key="origId" value="1195383150"/>
        </lane>
        <param key="origTo" value="13088745204"/>
    </edge>
    <edge id="-1197290650#0" from="cluster_11109235820_13110505657" to="11109235818" priority="1" type="highway.service" numLanes="1" speed="5.56" shape="606.65,320.16 595.17,319.65" allow="pedestrian delivery bicycle">
        <lane index="0">
            <param key="origId" value="1197290650"/>
        </lane>
        <param key="origFrom" value="13110505657"/>
    </edge>
    <edge id="-1211979595" from="11228307810" to="11228307809" priority="1" type="highway.service" numLanes="1" speed="5.56" allow="pedestrian delivery bicycle">
        <lane index="0">
            <param key="origId" value="1211979595"/>
        </lane>
    </edge>
    <edge id="-1228777606#0" from="cluster_11395414094_11395414095" to="11395414093" priority="1" type="highway.service" numLanes="1" speed="5.56" shape="531.65,178.36 531.48,180.51" allow="pedestrian delivery bicycle">
        <lane index="0">
            <param key="origId" value="1228777606"/>
        </lane>
        <param key="origFrom" value="11395414095"/>
    </edge>
    <edge id="-1228777607#0" from="cluster_11395414097_11395414098" to="11395414096" priority="1" type="highway.service" numLanes="1" speed="5.56" shape="496.35,175.66 496.20,177.69" allow="pedestrian delivery bicycle">
        <lane index="0">
            <param key="origId" value="1228777607"/>
        </lane>
        <param key="origFrom" value="11395414098"/>
    </edge>
    <edge id="-1228777608#0" from="11395414103" to="11395414101" priority="1" type="highway.service" numLanes="1" speed="5.56" allow="pedestrian delivery bicycle">
        <lane index="0">
            <param key="origId" value="1228777608"/>
        </lane>
    </edge>
    <edge id="-1228777608#1" from="cluster_1041979356_11395414087_11395414102" to="11395414103" priority="1" type="highway.service" numLanes="1" speed="5.56" shape="391.58,157.63 391.03,168.30" allow="pedestrian delivery bicycle">
        <lane index="0">
            <param key="origId" value="1228777608"/>
        </lane>
        <param key="origFrom" value="11395414102"/>
    </edge>
    <edge id="-1228777609#0" from="11395414106" to="11395414104" priority="1" type="highway.service" numLanes="1" speed="5.56" allow="pedestrian delivery bicycle">
        <lane index="0">
            <param key="origId" value="1228777609"/>
        </lane>
    </edge>
    <edge id="-1228777609#1" from="11395414105" to="11395414106" priority="1" type="highway.service" numLanes="1" speed="5.56" allow="pedestrian delivery bicycle">
        <lane index="0">
            <param key="origId" value="1228777609"/>
        </lane>
    </edge>
    <edge id="-1233790389" from="6879458154" to="10946836052" name="Werderscher Markt" priority="3" type="highway.residential" numLanes="1" speed="8.33" disallow="tram rail_urban rail rail_electric rail_fast ship container cable_car subway aircraft wheelchair scooter drone">
        <lane index="0">
            <param key="origId" value="1233790389"/>
        </lane>
    </edge>
    <edge id="-1233798019#0" from="cluster_13110996232_13115329788_13115347111_13285300586_#1more" to="cluster_11395370970_11395370972_13116912947_13116912948_#1more" name="Oberwallstraße" priority="3" type="highway.residential" numLanes="1" speed="8.33" shape="677.80,488.17 671.56,539.93 669.13,563.85 668.56,569.46" disallow="tram rail_urban rail rail_electric rail_fast ship container cable_car subway aircraft wheelchair scooter drone">
        <lane index="0">
            <param key="origId" value="1233798019 1126241276"/>
        </lane>
        <param key="origFrom" value="13285300586"/>
        <param key="origTo" value="11395370970"/>
    </edge>
    <edge id="-1249342904#0" from="11385245000" to="3922684842" name="Anton-Wilhelm-Amo-Straße" priority="3" type="highway.residential" numLanes="1" speed="8.33" shape="373.68,256.77 370.40,256.51 365.63,256.14" disallow="tram rail_urban rail rail_electric rail_fast ship container cable_car subway aircraft wheelchair scooter drone">
        <lane index="0">
            <param key="origId" value="1249342904"/>
        </lane>
    </edge>
    <edge id="-1249342904#1" from="1204940509" to="11385245000" name="Anton-Wilhelm-Amo-Straße" priority="3" type="highway.residential" numLanes="1" speed="8.33" disallow="tram rail_urban rail rail_electric rail_fast ship container cable_car subway aircraft wheelchair scooter drone">
        <lane index="0">
            <param key="origId" value="1249342904"/>
        </lane>
    </edge>
    <edge id="-1301030066#0" from="cluster_10654225764_12111661822_12111661823_12111661824_#3more" to="12050507230" priority="1" type="highway.cycleway" numLanes="1" speed="5.56" shape="1010.74,118.00 1012.04,118.89" width="1.25" allow="bicycle">
        <lane index="0">
            <param key="origId" value="1301030066"/>
        </lane>
        <param key="origFrom" value="13039277266"/>
    </edge>
    <edge id="-1307864983" from="cluster_10286920457_12150522204_13025705486_2659182536_#10more" to="3463838830" priority="1" type="highway.cycleway" numLanes="1" speed="5.56" shape="968.10,101.71 974.33,102.16 977.94,102.41" width="1.35" allow="bicycle">
        <lane index="0">
            <param key="origId" value="1307864983 1307864984"/>
        </lane>
        <param key="origFrom" value="13025705486"/>
    </edge>
    <edge id="-1307864984#0" from="3463838830" to="cluster_10654225764_12111661822_12111661823_12111661824_#3more" priority="1" type="highway.cycleway" numLanes="1" speed="5.56" shape="977.94,102.41 979.57,102.53 985.99,103.00 987.31,103.26 988.76,103.68 990.17,104.26 991.70,105.02 1001.00,111.30 1002.39,112.24" width="1.35" allow="bicycle">
        <lane index="0">
            <param key="origId" value="1307864984 996772156 1307864982"/>
        </lane>
        <param key="origTo" value="12111661824"/>
    </edge>
    <edge id="-1387909223" from="3213619059" to="3213619058" priority="1" type="highway.path" numLanes="1" speed="5.56" shape="497.96,536.89 497.52,542.24 496.59,553.59 496.38,555.79" width="2.00" allow="pedestrian bicycle">
        <lane index="0">
            <param key="origId" value="1387909223 315255170 315255114"/>
        </lane>
    </edge>
    <edge id="-1388649493#1" from="12854275134" to="cluster_12854275133_13056832804" priority="1" type="highway.service" numLanes="1" speed="5.56" shape="717.41,346.20 714.49,344.59" allow="pedestrian delivery bicycle">
        <lane index="0">
            <param key="origId" value="1388649493"/>
        </lane>
        <param key="origTo" value="13056832804"/>
    </edge>
    <edge id="-1420810367#0" from="13056832717" to="13056832715" priority="1" type="highway.service" numLanes="1" speed="5.56" allow="pedestrian delivery bicycle">
        <lane index="0">
            <param key="origId" value="1420810367"/>
        </lane>
    </edge>
    <edge id="-1420810367#1" from="13056832716" to="13056832717" priority="1" type="highway.service" numLanes="1" speed="5.56" shape="641.64,247.71 644.25,247.90 649.05,248.23 654.40,248.62" allow="pedestrian delivery bicycle">
        <lane index="0">
            <param key="origId" value="1420810367"/>
        </lane>
    </edge>
    <edge id="-1420810368#0" from="13056832721" to="13056832719" priority="1" type="highway.service" numLanes="1" speed="5.56" allow="pedestrian delivery bicycle">
        <lane index="0">
            <param key="origId" value="1420810368"/>
        </lane>
    </edge>
    <edge id="-1420810368#1" from="13056832720" to="13056832721" priority="1" type="highway.service" numLanes="1" speed="5.56" shape="642.68,235.06 645.19,235.29 649.89,235.60 657.51,236.15" allow="pedestrian delivery bicycle">
        <lane index="0">
            <param key="origId" value="1420810368"/>